* NGSPICE file created from opamp_cascode.ext - technology: sky130A

.subckt opamp_cascode IN_P IN_M VCC VSS OUT VB_A VB_B IB
X0 m9m10.t499 bias1.t7 VCC.t1038 VCC.t110 sky130_fd_pr__pfet_01v8 ad=0 pd=0 as=0 ps=0 w=5 l=15
**devattr s=58000,2116 d=58000,2116
X1 VCC.t1037 bias1.t8 m1m2.t499 VCC.t116 sky130_fd_pr__pfet_01v8 ad=0 pd=0 as=0 ps=0 w=5 l=15
**devattr s=58000,2116 d=58000,2116
X2 m3m4.t30 VB_B.t0 bias1.t2 VSS.t20 sky130_fd_pr__nfet_01v8 ad=0 pd=0 as=0 ps=0 w=5 l=5
**devattr s=58000,2116 d=58000,2116
X3 dummy_9.t447 bias1.t9 dummy_9.t446 VCC.t51 sky130_fd_pr__pfet_01v8 ad=0 pd=0 as=0 ps=0 w=5 l=15
**devattr d=58000,2116
X4 VCC.t1036 bias1.t10 m1m2.t498 VCC.t62 sky130_fd_pr__pfet_01v8 ad=0 pd=0 as=0 ps=0 w=5 l=15
**devattr s=58000,2116 d=58000,2116
X5 dummy_9.t445 bias1.t11 dummy_9.t444 VCC.t48 sky130_fd_pr__pfet_01v8 ad=0 pd=0 as=0 ps=0 w=5 l=15
**devattr d=58000,2116
X6 VCC.t1035 bias1.t12 m1m2.t497 VCC.t116 sky130_fd_pr__pfet_01v8 ad=0 pd=0 as=0 ps=0 w=5 l=15
**devattr s=58000,2116 d=58000,2116
X7 m9m10.t498 bias1.t13 VCC.t1034 VCC.t18 sky130_fd_pr__pfet_01v8 ad=0 pd=0 as=0 ps=0 w=5 l=15
**devattr s=58000,2116 d=58000,2116
X8 dummy_9.t443 bias1.t14 dummy_9.t442 VCC.t51 sky130_fd_pr__pfet_01v8 ad=0 pd=0 as=0 ps=0 w=5 l=15
**devattr d=58000,2116
X9 m9m10.t497 bias1.t15 VCC.t1033 VCC.t42 sky130_fd_pr__pfet_01v8 ad=0 pd=0 as=0 ps=0 w=5 l=15
**devattr s=58000,2116 d=58000,2116
X10 dummy_4.t39 bias3.t38 dummy_4.t38 VSS.t2 sky130_fd_pr__nfet_01v8 ad=0 pd=0 as=0 ps=0 w=1.25 l=1
**devattr d=14500,616
X11 VCC.t1032 bias1.t16 m1m2.t496 VCC.t24 sky130_fd_pr__pfet_01v8 ad=0 pd=0 as=0 ps=0 w=5 l=15
**devattr s=58000,2116 d=58000,2116
X12 m9m10.t496 bias1.t17 VCC.t1031 VCC.t18 sky130_fd_pr__pfet_01v8 ad=0 pd=0 as=0 ps=0 w=5 l=15
**devattr s=58000,2116 d=58000,2116
X13 dummy_9.t441 bias1.t18 dummy_9.t440 VCC.t15 sky130_fd_pr__pfet_01v8 ad=0 pd=0 as=0 ps=0 w=5 l=15
**devattr d=58000,2116
X14 dummy_9.t439 bias1.t19 dummy_9.t438 VCC.t33 sky130_fd_pr__pfet_01v8 ad=0 pd=0 as=0 ps=0 w=5 l=15
**devattr d=58000,2116
X15 m9m10.t495 bias1.t20 VCC.t1030 VCC.t87 sky130_fd_pr__pfet_01v8 ad=0 pd=0 as=0 ps=0 w=5 l=15
**devattr s=58000,2116 d=58000,2116
X16 dummy_4.t37 bias3.t39 dummy_4.t36 VSS.t5 sky130_fd_pr__nfet_01v8 ad=0 pd=0 as=0 ps=0 w=1.25 l=1
**devattr d=14500,616
X17 m9m10.t494 bias1.t21 VCC.t1029 VCC.t49 sky130_fd_pr__pfet_01v8 ad=0 pd=0 as=0 ps=0 w=5 l=15
**devattr s=58000,2116 d=58000,2116
X18 dummy_9.t437 bias1.t22 dummy_9.t436 VCC.t48 sky130_fd_pr__pfet_01v8 ad=0 pd=0 as=0 ps=0 w=5 l=15
**devattr d=58000,2116
X19 VCC.t1025 bias1.t23 m1m2.t495 VCC.t38 sky130_fd_pr__pfet_01v8 ad=0 pd=0 as=0 ps=0 w=5 l=15
**devattr s=58000,2116 d=58000,2116
X20 m9m10.t493 bias1.t24 VCC.t1028 VCC.t18 sky130_fd_pr__pfet_01v8 ad=0 pd=0 as=0 ps=0 w=5 l=15
**devattr s=58000,2116 d=58000,2116
X21 m9m10.t492 bias1.t25 VCC.t1027 VCC.t49 sky130_fd_pr__pfet_01v8 ad=0 pd=0 as=0 ps=0 w=5 l=15
**devattr s=58000,2116 d=58000,2116
X22 m1m2.t522 VB_A.t0 bias1.t6 VCC.t1046 sky130_fd_pr__pfet_01v8 ad=0 pd=0 as=0 ps=0 w=5 l=5
**devattr s=58000,2116 d=58000,2116
X23 dummy_9.t435 bias1.t26 dummy_9.t434 VCC.t51 sky130_fd_pr__pfet_01v8 ad=0 pd=0 as=0 ps=0 w=5 l=15
**devattr d=58000,2116
X24 m9m10.t491 bias1.t27 VCC.t1026 VCC.t104 sky130_fd_pr__pfet_01v8 ad=0 pd=0 as=0 ps=0 w=5 l=15
**devattr s=58000,2116 d=58000,2116
X25 m9m10.t490 bias1.t28 VCC.t1024 VCC.t42 sky130_fd_pr__pfet_01v8 ad=0 pd=0 as=0 ps=0 w=5 l=15
**devattr s=58000,2116 d=58000,2116
X26 dummy_100.t39 IB.t8 dummy_100.t38 VCC.t6 sky130_fd_pr__pfet_01v8 ad=0 pd=0 as=0 ps=0 w=5 l=3
**devattr d=58000,2116
X27 VCC.t1023 bias1.t29 m1m2.t494 VCC.t20 sky130_fd_pr__pfet_01v8 ad=0 pd=0 as=0 ps=0 w=5 l=15
**devattr s=58000,2116 d=58000,2116
X28 dummy_3.t83 VB_B.t1 dummy_3.t82 VSS.t17 sky130_fd_pr__nfet_01v8 ad=0 pd=0 as=0 ps=0 w=5 l=5
**devattr d=58000,2116
X29 VCC.t1022 bias1.t30 m1m2.t493 VCC.t46 sky130_fd_pr__pfet_01v8 ad=0 pd=0 as=0 ps=0 w=5 l=15
**devattr s=58000,2116 d=58000,2116
X30 m9m10.t489 bias1.t31 VCC.t1021 VCC.t59 sky130_fd_pr__pfet_01v8 ad=0 pd=0 as=0 ps=0 w=5 l=15
**devattr s=58000,2116 d=58000,2116
X31 m9m10.t488 bias1.t32 VCC.t1020 VCC.t110 sky130_fd_pr__pfet_01v8 ad=0 pd=0 as=0 ps=0 w=5 l=15
**devattr s=58000,2116 d=58000,2116
X32 dummy_9.t433 bias1.t33 dummy_9.t432 VCC.t58 sky130_fd_pr__pfet_01v8 ad=0 pd=0 as=0 ps=0 w=5 l=15
**devattr d=58000,2116
X33 dummy_2.t83 VB_A.t1 dummy_2.t82 VCC.t1042 sky130_fd_pr__pfet_01v8 ad=0 pd=0 as=0 ps=0 w=5 l=5
**devattr d=58000,2116
X34 dummy_3.t81 VB_B.t2 dummy_3.t80 VSS.t18 sky130_fd_pr__nfet_01v8 ad=0 pd=0 as=0 ps=0 w=5 l=5
**devattr d=58000,2116
X35 VCC.t1019 bias1.t34 m1m2.t492 VCC.t22 sky130_fd_pr__pfet_01v8 ad=0 pd=0 as=0 ps=0 w=5 l=15
**devattr s=58000,2116 d=58000,2116
X36 m9m10.t487 bias1.t35 VCC.t1018 VCC.t110 sky130_fd_pr__pfet_01v8 ad=0 pd=0 as=0 ps=0 w=5 l=15
**devattr s=58000,2116 d=58000,2116
X37 m9m10.t486 bias1.t36 VCC.t1017 VCC.t104 sky130_fd_pr__pfet_01v8 ad=0 pd=0 as=0 ps=0 w=5 l=15
**devattr s=58000,2116 d=58000,2116
X38 m9m10.t485 bias1.t37 VCC.t1016 VCC.t49 sky130_fd_pr__pfet_01v8 ad=0 pd=0 as=0 ps=0 w=5 l=15
**devattr s=58000,2116 d=58000,2116
X39 m9m10.t484 bias1.t38 VCC.t1015 VCC.t42 sky130_fd_pr__pfet_01v8 ad=0 pd=0 as=0 ps=0 w=5 l=15
**devattr s=58000,2116 d=58000,2116
X40 VCC.t1014 bias1.t39 m1m2.t491 VCC.t46 sky130_fd_pr__pfet_01v8 ad=0 pd=0 as=0 ps=0 w=5 l=15
**devattr s=58000,2116 d=58000,2116
X41 dummy_9.t431 bias1.t40 dummy_9.t430 VCC.t51 sky130_fd_pr__pfet_01v8 ad=0 pd=0 as=0 ps=0 w=5 l=15
**devattr d=58000,2116
X42 VCC.t1013 bias1.t41 m1m2.t490 VCC.t64 sky130_fd_pr__pfet_01v8 ad=0 pd=0 as=0 ps=0 w=5 l=15
**devattr s=58000,2116 d=58000,2116
X43 VCC.t1012 bias1.t42 m1m2.t489 VCC.t116 sky130_fd_pr__pfet_01v8 ad=0 pd=0 as=0 ps=0 w=5 l=15
**devattr s=58000,2116 d=58000,2116
X44 m9m10.t483 bias1.t43 VCC.t981 VCC.t18 sky130_fd_pr__pfet_01v8 ad=0 pd=0 as=0 ps=0 w=5 l=15
**devattr s=58000,2116 d=58000,2116
X45 dummy_100.t37 IB.t9 dummy_100.t36 VCC.t0 sky130_fd_pr__pfet_01v8 ad=0 pd=0 as=0 ps=0 w=5 l=3
**devattr d=58000,2116
X46 m9m10.t482 bias1.t44 VCC.t1011 VCC.t42 sky130_fd_pr__pfet_01v8 ad=0 pd=0 as=0 ps=0 w=5 l=15
**devattr s=58000,2116 d=58000,2116
X47 OUT.t29 VB_A.t2 m9m10.t524 VCC.t1043 sky130_fd_pr__pfet_01v8 ad=0 pd=0 as=0 ps=0 w=5 l=5
**devattr s=58000,2116 d=58000,2116
X48 m1m2.t520 VB_A.t3 bias1.t6 VCC.t1046 sky130_fd_pr__pfet_01v8 ad=0 pd=0 as=0 ps=0 w=5 l=5
**devattr s=58000,2116 d=58000,2116
X49 VCC.t983 bias1.t45 m1m2.t488 VCC.t22 sky130_fd_pr__pfet_01v8 ad=0 pd=0 as=0 ps=0 w=5 l=15
**devattr s=58000,2116 d=58000,2116
X50 m9m10.t481 bias1.t46 VCC.t994 VCC.t87 sky130_fd_pr__pfet_01v8 ad=0 pd=0 as=0 ps=0 w=5 l=15
**devattr s=58000,2116 d=58000,2116
X51 VCC.t1010 bias1.t47 m1m2.t487 VCC.t26 sky130_fd_pr__pfet_01v8 ad=0 pd=0 as=0 ps=0 w=5 l=15
**devattr s=58000,2116 d=58000,2116
X52 m9m10.t480 bias1.t48 VCC.t1009 VCC.t59 sky130_fd_pr__pfet_01v8 ad=0 pd=0 as=0 ps=0 w=5 l=15
**devattr s=58000,2116 d=58000,2116
X53 dummy_9.t429 bias1.t49 dummy_9.t428 VCC.t58 sky130_fd_pr__pfet_01v8 ad=0 pd=0 as=0 ps=0 w=5 l=15
**devattr d=58000,2116
X54 dummy_9.t427 bias1.t50 dummy_9.t426 VCC.t58 sky130_fd_pr__pfet_01v8 ad=0 pd=0 as=0 ps=0 w=5 l=15
**devattr d=58000,2116
X55 VCC.t982 bias1.t51 m1m2.t486 VCC.t38 sky130_fd_pr__pfet_01v8 ad=0 pd=0 as=0 ps=0 w=5 l=15
**devattr s=58000,2116 d=58000,2116
X56 dummy_4.t35 bias3.t40 dummy_4.t34 VSS.t2 sky130_fd_pr__nfet_01v8 ad=0 pd=0 as=0 ps=0 w=1.25 l=1
**devattr d=14500,616
X57 m9m10.t479 bias1.t52 VCC.t1008 VCC.t110 sky130_fd_pr__pfet_01v8 ad=0 pd=0 as=0 ps=0 w=5 l=15
**devattr s=58000,2116 d=58000,2116
X58 dummy_2.t81 VB_A.t4 dummy_2.t80 VCC.t1042 sky130_fd_pr__pfet_01v8 ad=0 pd=0 as=0 ps=0 w=5 l=5
**devattr d=58000,2116
X59 VCC.t1007 bias1.t53 m1m2.t485 VCC.t116 sky130_fd_pr__pfet_01v8 ad=0 pd=0 as=0 ps=0 w=5 l=15
**devattr s=58000,2116 d=58000,2116
X60 VCC.t985 bias1.t54 m1m2.t484 VCC.t33 sky130_fd_pr__pfet_01v8 ad=0 pd=0 as=0 ps=0 w=5 l=15
**devattr s=58000,2116 d=58000,2116
X61 m9m10.t478 bias1.t55 VCC.t1006 VCC.t15 sky130_fd_pr__pfet_01v8 ad=0 pd=0 as=0 ps=0 w=5 l=15
**devattr s=58000,2116 d=58000,2116
X62 m9m10.t477 bias1.t56 VCC.t1002 VCC.t104 sky130_fd_pr__pfet_01v8 ad=0 pd=0 as=0 ps=0 w=5 l=15
**devattr s=58000,2116 d=58000,2116
X63 dummy_9.t425 bias1.t57 dummy_9.t424 VCC.t96 sky130_fd_pr__pfet_01v8 ad=0 pd=0 as=0 ps=0 w=5 l=15
**devattr d=58000,2116
X64 VCC.t1005 bias1.t58 m1m2.t483 VCC.t46 sky130_fd_pr__pfet_01v8 ad=0 pd=0 as=0 ps=0 w=5 l=15
**devattr s=58000,2116 d=58000,2116
X65 VCC.t984 bias1.t59 m1m2.t482 VCC.t116 sky130_fd_pr__pfet_01v8 ad=0 pd=0 as=0 ps=0 w=5 l=15
**devattr s=58000,2116 d=58000,2116
X66 a_46836_49340.t45 IN_M.t0 bias3.t36 VCC.t9 sky130_fd_pr__pfet_01v8 ad=0 pd=0 as=0 ps=0 w=5 l=0.18
**devattr s=58000,2116 d=58000,2116
X67 m9m10.t476 bias1.t60 VCC.t1004 VCC.t18 sky130_fd_pr__pfet_01v8 ad=0 pd=0 as=0 ps=0 w=5 l=15
**devattr s=58000,2116 d=58000,2116
X68 m9m10.t475 bias1.t61 VCC.t1001 VCC.t42 sky130_fd_pr__pfet_01v8 ad=0 pd=0 as=0 ps=0 w=5 l=15
**devattr s=58000,2116 d=58000,2116
X69 VCC.t1003 bias1.t62 m1m2.t481 VCC.t46 sky130_fd_pr__pfet_01v8 ad=0 pd=0 as=0 ps=0 w=5 l=15
**devattr s=58000,2116 d=58000,2116
X70 dummy_9.t423 bias1.t63 dummy_9.t422 VCC.t51 sky130_fd_pr__pfet_01v8 ad=0 pd=0 as=0 ps=0 w=5 l=15
**devattr d=58000,2116
X71 m9m10.t474 bias1.t64 VCC.t1000 VCC.t18 sky130_fd_pr__pfet_01v8 ad=0 pd=0 as=0 ps=0 w=5 l=15
**devattr s=58000,2116 d=58000,2116
X72 VCC.t999 bias1.t65 m1m2.t480 VCC.t20 sky130_fd_pr__pfet_01v8 ad=0 pd=0 as=0 ps=0 w=5 l=15
**devattr s=58000,2116 d=58000,2116
X73 m9m10.t473 bias1.t66 VCC.t993 VCC.t87 sky130_fd_pr__pfet_01v8 ad=0 pd=0 as=0 ps=0 w=5 l=15
**devattr s=58000,2116 d=58000,2116
X74 dummy_9.t421 bias1.t67 dummy_9.t420 VCC.t58 sky130_fd_pr__pfet_01v8 ad=0 pd=0 as=0 ps=0 w=5 l=15
**devattr d=58000,2116
X75 m9m10.t472 bias1.t68 VCC.t998 VCC.t104 sky130_fd_pr__pfet_01v8 ad=0 pd=0 as=0 ps=0 w=5 l=15
**devattr s=58000,2116 d=58000,2116
X76 dummy_9.t419 bias1.t69 dummy_9.t418 VCC.t48 sky130_fd_pr__pfet_01v8 ad=0 pd=0 as=0 ps=0 w=5 l=15
**devattr d=58000,2116
X77 dummy_9.t417 bias1.t70 dummy_9.t416 VCC.t58 sky130_fd_pr__pfet_01v8 ad=0 pd=0 as=0 ps=0 w=5 l=15
**devattr d=58000,2116
X78 m9m10.t471 bias1.t71 VCC.t997 VCC.t104 sky130_fd_pr__pfet_01v8 ad=0 pd=0 as=0 ps=0 w=5 l=15
**devattr s=58000,2116 d=58000,2116
X79 VCC.t996 bias1.t72 m1m2.t479 VCC.t38 sky130_fd_pr__pfet_01v8 ad=0 pd=0 as=0 ps=0 w=5 l=15
**devattr s=58000,2116 d=58000,2116
X80 m9m10.t470 bias1.t73 VCC.t995 VCC.t31 sky130_fd_pr__pfet_01v8 ad=0 pd=0 as=0 ps=0 w=5 l=15
**devattr s=58000,2116 d=58000,2116
X81 m9m10.t469 bias1.t74 VCC.t980 VCC.t42 sky130_fd_pr__pfet_01v8 ad=0 pd=0 as=0 ps=0 w=5 l=15
**devattr s=58000,2116 d=58000,2116
X82 VCC.t992 bias1.t75 m1m2.t478 VCC.t20 sky130_fd_pr__pfet_01v8 ad=0 pd=0 as=0 ps=0 w=5 l=15
**devattr s=58000,2116 d=58000,2116
X83 m9m10.t468 bias1.t76 VCC.t979 VCC.t104 sky130_fd_pr__pfet_01v8 ad=0 pd=0 as=0 ps=0 w=5 l=15
**devattr s=58000,2116 d=58000,2116
X84 VCC.t991 bias1.t77 m1m2.t477 VCC.t26 sky130_fd_pr__pfet_01v8 ad=0 pd=0 as=0 ps=0 w=5 l=15
**devattr s=58000,2116 d=58000,2116
X85 m9m10.t467 bias1.t78 VCC.t990 VCC.t59 sky130_fd_pr__pfet_01v8 ad=0 pd=0 as=0 ps=0 w=5 l=15
**devattr s=58000,2116 d=58000,2116
X86 dummy_9.t415 bias1.t57 dummy_9.t414 VCC.t96 sky130_fd_pr__pfet_01v8 ad=0 pd=0 as=0 ps=0 w=5 l=15
**devattr d=58000,2116
X87 VCC.t989 bias1.t79 m1m2.t476 VCC.t46 sky130_fd_pr__pfet_01v8 ad=0 pd=0 as=0 ps=0 w=5 l=15
**devattr s=58000,2116 d=58000,2116
X88 dummy_9.t413 bias1.t80 dummy_9.t412 VCC.t48 sky130_fd_pr__pfet_01v8 ad=0 pd=0 as=0 ps=0 w=5 l=15
**devattr d=58000,2116
X89 m9m10.t466 bias1.t81 VCC.t978 VCC.t59 sky130_fd_pr__pfet_01v8 ad=0 pd=0 as=0 ps=0 w=5 l=15
**devattr s=58000,2116 d=58000,2116
X90 VCC.t988 bias1.t82 m1m2.t475 VCC.t62 sky130_fd_pr__pfet_01v8 ad=0 pd=0 as=0 ps=0 w=5 l=15
**devattr s=58000,2116 d=58000,2116
X91 dummy_9.t411 bias1.t83 dummy_9.t410 VCC.t58 sky130_fd_pr__pfet_01v8 ad=0 pd=0 as=0 ps=0 w=5 l=15
**devattr d=58000,2116
X92 m3m4.t29 VB_B.t3 bias1.t2 VSS.t20 sky130_fd_pr__nfet_01v8 ad=0 pd=0 as=0 ps=0 w=5 l=5
**devattr s=58000,2116 d=58000,2116
X93 dummy_9.t409 bias1.t84 dummy_9.t408 VCC.t96 sky130_fd_pr__pfet_01v8 ad=0 pd=0 as=0 ps=0 w=5 l=15
**devattr d=58000,2116
X94 m9m10.t465 bias1.t85 VCC.t987 VCC.t15 sky130_fd_pr__pfet_01v8 ad=0 pd=0 as=0 ps=0 w=5 l=15
**devattr s=58000,2116 d=58000,2116
X95 VCC.t986 bias1.t86 m1m2.t474 VCC.t33 sky130_fd_pr__pfet_01v8 ad=0 pd=0 as=0 ps=0 w=5 l=15
**devattr s=58000,2116 d=58000,2116
X96 VCC.t977 bias1.t87 m1m2.t473 VCC.t38 sky130_fd_pr__pfet_01v8 ad=0 pd=0 as=0 ps=0 w=5 l=15
**devattr s=58000,2116 d=58000,2116
X97 m9m10.t464 bias1.t88 VCC.t976 VCC.t104 sky130_fd_pr__pfet_01v8 ad=0 pd=0 as=0 ps=0 w=5 l=15
**devattr s=58000,2116 d=58000,2116
X98 VCC.t975 bias1.t89 m1m2.t472 VCC.t116 sky130_fd_pr__pfet_01v8 ad=0 pd=0 as=0 ps=0 w=5 l=15
**devattr s=58000,2116 d=58000,2116
X99 VCC.t971 bias1.t90 m1m2.t471 VCC.t64 sky130_fd_pr__pfet_01v8 ad=0 pd=0 as=0 ps=0 w=5 l=15
**devattr s=58000,2116 d=58000,2116
X100 VCC.t974 bias1.t91 m1m2.t470 VCC.t116 sky130_fd_pr__pfet_01v8 ad=0 pd=0 as=0 ps=0 w=5 l=15
**devattr s=58000,2116 d=58000,2116
X101 dummy_9.t407 bias1.t92 dummy_9.t406 VCC.t51 sky130_fd_pr__pfet_01v8 ad=0 pd=0 as=0 ps=0 w=5 l=15
**devattr d=58000,2116
X102 VCC.t973 bias1.t93 m1m2.t469 VCC.t22 sky130_fd_pr__pfet_01v8 ad=0 pd=0 as=0 ps=0 w=5 l=15
**devattr s=58000,2116 d=58000,2116
X103 bias21.t29 IN_P.t0 a_46836_49340.t10 VCC.t3 sky130_fd_pr__pfet_01v8 ad=0 pd=0 as=0 ps=0 w=5 l=0.18
**devattr s=58000,2116 d=58000,2116
X104 m9m10.t523 VB_A.t5 OUT.t28 VCC.t1041 sky130_fd_pr__pfet_01v8 ad=0 pd=0 as=0 ps=0 w=5 l=5
**devattr s=58000,2116 d=58000,2116
X105 VCC.t972 bias1.t94 m1m2.t468 VCC.t20 sky130_fd_pr__pfet_01v8 ad=0 pd=0 as=0 ps=0 w=5 l=15
**devattr s=58000,2116 d=58000,2116
X106 VCC.t970 bias1.t95 m1m2.t467 VCC.t20 sky130_fd_pr__pfet_01v8 ad=0 pd=0 as=0 ps=0 w=5 l=15
**devattr s=58000,2116 d=58000,2116
X107 dummy_100.t35 IB.t10 dummy_100.t34 VCC.t0 sky130_fd_pr__pfet_01v8 ad=0 pd=0 as=0 ps=0 w=5 l=3
**devattr d=58000,2116
X108 bias1.t6 VB_A.t6 m1m2.t516 VCC.t1044 sky130_fd_pr__pfet_01v8 ad=0 pd=0 as=0 ps=0 w=5 l=5
**devattr s=58000,2116 d=58000,2116
X109 m9m10.t463 bias1.t96 VCC.t969 VCC.t42 sky130_fd_pr__pfet_01v8 ad=0 pd=0 as=0 ps=0 w=5 l=15
**devattr s=58000,2116 d=58000,2116
X110 VCC.t968 bias1.t97 m1m2.t466 VCC.t20 sky130_fd_pr__pfet_01v8 ad=0 pd=0 as=0 ps=0 w=5 l=15
**devattr s=58000,2116 d=58000,2116
X111 VCC.t964 bias1.t98 m1m2.t465 VCC.t26 sky130_fd_pr__pfet_01v8 ad=0 pd=0 as=0 ps=0 w=5 l=15
**devattr s=58000,2116 d=58000,2116
X112 m9m10.t462 bias1.t99 VCC.t967 VCC.t59 sky130_fd_pr__pfet_01v8 ad=0 pd=0 as=0 ps=0 w=5 l=15
**devattr s=58000,2116 d=58000,2116
X113 dummy_9.t405 bias1.t100 dummy_9.t404 VCC.t48 sky130_fd_pr__pfet_01v8 ad=0 pd=0 as=0 ps=0 w=5 l=15
**devattr d=58000,2116
X114 m9m10.t461 bias1.t101 VCC.t966 VCC.t31 sky130_fd_pr__pfet_01v8 ad=0 pd=0 as=0 ps=0 w=5 l=15
**devattr s=58000,2116 d=58000,2116
X115 dummy_9.t403 bias1.t102 dummy_9.t402 VCC.t48 sky130_fd_pr__pfet_01v8 ad=0 pd=0 as=0 ps=0 w=5 l=15
**devattr d=58000,2116
X116 m9m10.t460 bias1.t103 VCC.t965 VCC.t49 sky130_fd_pr__pfet_01v8 ad=0 pd=0 as=0 ps=0 w=5 l=15
**devattr s=58000,2116 d=58000,2116
X117 VCC.t963 bias1.t104 m1m2.t464 VCC.t22 sky130_fd_pr__pfet_01v8 ad=0 pd=0 as=0 ps=0 w=5 l=15
**devattr s=58000,2116 d=58000,2116
X118 m9m10.t459 bias1.t105 VCC.t962 VCC.t31 sky130_fd_pr__pfet_01v8 ad=0 pd=0 as=0 ps=0 w=5 l=15
**devattr s=58000,2116 d=58000,2116
X119 dummy_9.t401 bias1.t106 dummy_9.t400 VCC.t96 sky130_fd_pr__pfet_01v8 ad=0 pd=0 as=0 ps=0 w=5 l=15
**devattr d=58000,2116
X120 VCC.t961 bias1.t107 m1m2.t463 VCC.t33 sky130_fd_pr__pfet_01v8 ad=0 pd=0 as=0 ps=0 w=5 l=15
**devattr s=58000,2116 d=58000,2116
X121 a_46836_49340.t11 IN_P.t1 bias21.t28 VCC.t10 sky130_fd_pr__pfet_01v8 ad=0 pd=0 as=0 ps=0 w=5 l=0.18
**devattr s=58000,2116 d=58000,2116
X122 m9m10.t458 bias1.t108 VCC.t960 VCC.t15 sky130_fd_pr__pfet_01v8 ad=0 pd=0 as=0 ps=0 w=5 l=15
**devattr s=58000,2116 d=58000,2116
X123 VCC.t959 bias1.t109 m1m2.t462 VCC.t20 sky130_fd_pr__pfet_01v8 ad=0 pd=0 as=0 ps=0 w=5 l=15
**devattr s=58000,2116 d=58000,2116
X124 VCC.t958 bias1.t110 m1m2.t461 VCC.t22 sky130_fd_pr__pfet_01v8 ad=0 pd=0 as=0 ps=0 w=5 l=15
**devattr s=58000,2116 d=58000,2116
X125 bias1.t6 VB_A.t7 m1m2.t517 VCC.t1044 sky130_fd_pr__pfet_01v8 ad=0 pd=0 as=0 ps=0 w=5 l=5
**devattr s=58000,2116 d=58000,2116
X126 m9m10.t457 bias1.t111 VCC.t957 VCC.t28 sky130_fd_pr__pfet_01v8 ad=0 pd=0 as=0 ps=0 w=5 l=15
**devattr s=58000,2116 d=58000,2116
X127 a_46836_49340.t62 IN_P.t2 bias21.t27 VCC.t10 sky130_fd_pr__pfet_01v8 ad=0 pd=0 as=0 ps=0 w=5 l=0.18
**devattr s=58000,2116 d=58000,2116
X128 a_46836_49340.t44 IN_M.t1 bias3.t37 VCC.t9 sky130_fd_pr__pfet_01v8 ad=0 pd=0 as=0 ps=0 w=5 l=0.18
**devattr s=58000,2116 d=58000,2116
X129 dummy_3.t79 VB_B.t4 dummy_3.t78 VSS.t18 sky130_fd_pr__nfet_01v8 ad=0 pd=0 as=0 ps=0 w=5 l=5
**devattr d=58000,2116
X130 m9m10.t456 bias1.t112 VCC.t956 VCC.t28 sky130_fd_pr__pfet_01v8 ad=0 pd=0 as=0 ps=0 w=5 l=15
**devattr s=58000,2116 d=58000,2116
X131 VCC.t955 bias1.t113 m1m2.t460 VCC.t62 sky130_fd_pr__pfet_01v8 ad=0 pd=0 as=0 ps=0 w=5 l=15
**devattr s=58000,2116 d=58000,2116
X132 VCC.t947 bias1.t114 m1m2.t459 VCC.t20 sky130_fd_pr__pfet_01v8 ad=0 pd=0 as=0 ps=0 w=5 l=15
**devattr s=58000,2116 d=58000,2116
X133 dummy_9.t399 bias1.t115 dummy_9.t398 VCC.t48 sky130_fd_pr__pfet_01v8 ad=0 pd=0 as=0 ps=0 w=5 l=15
**devattr d=58000,2116
X134 m9m10.t455 bias1.t116 VCC.t954 VCC.t18 sky130_fd_pr__pfet_01v8 ad=0 pd=0 as=0 ps=0 w=5 l=15
**devattr s=58000,2116 d=58000,2116
X135 VCC.t952 bias1.t117 m1m2.t458 VCC.t33 sky130_fd_pr__pfet_01v8 ad=0 pd=0 as=0 ps=0 w=5 l=15
**devattr s=58000,2116 d=58000,2116
X136 m9m10.t454 bias1.t118 VCC.t953 VCC.t15 sky130_fd_pr__pfet_01v8 ad=0 pd=0 as=0 ps=0 w=5 l=15
**devattr s=58000,2116 d=58000,2116
X137 VCC.t951 bias1.t119 m1m2.t457 VCC.t22 sky130_fd_pr__pfet_01v8 ad=0 pd=0 as=0 ps=0 w=5 l=15
**devattr s=58000,2116 d=58000,2116
X138 m9m10.t522 VB_A.t8 OUT.t27 VCC.t1041 sky130_fd_pr__pfet_01v8 ad=0 pd=0 as=0 ps=0 w=5 l=5
**devattr s=58000,2116 d=58000,2116
X139 m9m10.t453 bias1.t120 VCC.t950 VCC.t31 sky130_fd_pr__pfet_01v8 ad=0 pd=0 as=0 ps=0 w=5 l=15
**devattr s=58000,2116 d=58000,2116
X140 VCC.t949 bias1.t121 m1m2.t456 VCC.t64 sky130_fd_pr__pfet_01v8 ad=0 pd=0 as=0 ps=0 w=5 l=15
**devattr s=58000,2116 d=58000,2116
X141 VCC.t948 bias1.t122 m1m2.t455 VCC.t38 sky130_fd_pr__pfet_01v8 ad=0 pd=0 as=0 ps=0 w=5 l=15
**devattr s=58000,2116 d=58000,2116
X142 VCC.t946 bias1.t123 m1m2.t454 VCC.t22 sky130_fd_pr__pfet_01v8 ad=0 pd=0 as=0 ps=0 w=5 l=15
**devattr s=58000,2116 d=58000,2116
X143 bias1.t6 VB_A.t9 m1m2.t514 VCC.t1044 sky130_fd_pr__pfet_01v8 ad=0 pd=0 as=0 ps=0 w=5 l=5
**devattr s=58000,2116 d=58000,2116
X144 VCC.t945 bias1.t124 m1m2.t453 VCC.t20 sky130_fd_pr__pfet_01v8 ad=0 pd=0 as=0 ps=0 w=5 l=15
**devattr s=58000,2116 d=58000,2116
X145 m11m12.t30 VB_B.t5 OUT.t46 VSS.t16 sky130_fd_pr__nfet_01v8 ad=0 pd=0 as=0 ps=0 w=5 l=5
**devattr s=58000,2116 d=58000,2116
X146 m9m10.t452 bias1.t125 VCC.t944 VCC.t110 sky130_fd_pr__pfet_01v8 ad=0 pd=0 as=0 ps=0 w=5 l=15
**devattr s=58000,2116 d=58000,2116
X147 dummy_2.t79 VB_A.t10 dummy_2.t78 VCC.t1045 sky130_fd_pr__pfet_01v8 ad=0 pd=0 as=0 ps=0 w=5 l=5
**devattr d=58000,2116
X148 m9m10.t451 bias1.t126 VCC.t943 VCC.t28 sky130_fd_pr__pfet_01v8 ad=0 pd=0 as=0 ps=0 w=5 l=15
**devattr s=58000,2116 d=58000,2116
X149 VCC.t942 bias1.t127 m1m2.t452 VCC.t62 sky130_fd_pr__pfet_01v8 ad=0 pd=0 as=0 ps=0 w=5 l=15
**devattr s=58000,2116 d=58000,2116
X150 dummy_9.t397 bias1.t128 dummy_9.t396 VCC.t48 sky130_fd_pr__pfet_01v8 ad=0 pd=0 as=0 ps=0 w=5 l=15
**devattr d=58000,2116
X151 OUT.t30 VB_B.t6 m11m12.t29 VSS.t19 sky130_fd_pr__nfet_01v8 ad=0 pd=0 as=0 ps=0 w=5 l=5
**devattr s=58000,2116 d=58000,2116
X152 m9m10.t450 bias1.t129 VCC.t941 VCC.t49 sky130_fd_pr__pfet_01v8 ad=0 pd=0 as=0 ps=0 w=5 l=15
**devattr s=58000,2116 d=58000,2116
X153 VCC.t940 bias1.t130 m1m2.t451 VCC.t24 sky130_fd_pr__pfet_01v8 ad=0 pd=0 as=0 ps=0 w=5 l=15
**devattr s=58000,2116 d=58000,2116
X154 dummy_9.t395 bias1.t131 dummy_9.t394 VCC.t96 sky130_fd_pr__pfet_01v8 ad=0 pd=0 as=0 ps=0 w=5 l=15
**devattr d=58000,2116
X155 m9m10.t449 bias1.t132 VCC.t939 VCC.t18 sky130_fd_pr__pfet_01v8 ad=0 pd=0 as=0 ps=0 w=5 l=15
**devattr s=58000,2116 d=58000,2116
X156 m9m10.t448 bias1.t133 VCC.t938 VCC.t49 sky130_fd_pr__pfet_01v8 ad=0 pd=0 as=0 ps=0 w=5 l=15
**devattr s=58000,2116 d=58000,2116
X157 dummy_9.t393 bias1.t134 dummy_9.t392 VCC.t51 sky130_fd_pr__pfet_01v8 ad=0 pd=0 as=0 ps=0 w=5 l=15
**devattr d=58000,2116
X158 VCC.t937 bias1.t135 m1m2.t450 VCC.t38 sky130_fd_pr__pfet_01v8 ad=0 pd=0 as=0 ps=0 w=5 l=15
**devattr s=58000,2116 d=58000,2116
X159 m9m10.t447 bias1.t136 VCC.t936 VCC.t28 sky130_fd_pr__pfet_01v8 ad=0 pd=0 as=0 ps=0 w=5 l=15
**devattr s=58000,2116 d=58000,2116
X160 VCC.t935 bias1.t137 m1m2.t449 VCC.t64 sky130_fd_pr__pfet_01v8 ad=0 pd=0 as=0 ps=0 w=5 l=15
**devattr s=58000,2116 d=58000,2116
X161 m9m10.t446 bias1.t138 VCC.t934 VCC.t28 sky130_fd_pr__pfet_01v8 ad=0 pd=0 as=0 ps=0 w=5 l=15
**devattr s=58000,2116 d=58000,2116
X162 dummy_3.t77 VB_B.t7 dummy_3.t76 VSS.t18 sky130_fd_pr__nfet_01v8 ad=0 pd=0 as=0 ps=0 w=5 l=5
**devattr d=58000,2116
X163 VCC.t933 bias1.t139 m1m2.t448 VCC.t22 sky130_fd_pr__pfet_01v8 ad=0 pd=0 as=0 ps=0 w=5 l=15
**devattr s=58000,2116 d=58000,2116
X164 bias21.t26 IN_P.t3 a_46836_49340.t63 VCC.t3 sky130_fd_pr__pfet_01v8 ad=0 pd=0 as=0 ps=0 w=5 l=0.18
**devattr s=58000,2116 d=58000,2116
X165 m9m10.t520 VB_A.t11 OUT.t26 VCC.t1041 sky130_fd_pr__pfet_01v8 ad=0 pd=0 as=0 ps=0 w=5 l=5
**devattr s=58000,2116 d=58000,2116
X166 m9m10.t445 bias1.t140 VCC.t932 VCC.t49 sky130_fd_pr__pfet_01v8 ad=0 pd=0 as=0 ps=0 w=5 l=15
**devattr s=58000,2116 d=58000,2116
X167 m9m10.t444 bias1.t141 VCC.t931 VCC.t110 sky130_fd_pr__pfet_01v8 ad=0 pd=0 as=0 ps=0 w=5 l=15
**devattr s=58000,2116 d=58000,2116
X168 VCC.t915 bias1.t142 m1m2.t447 VCC.t46 sky130_fd_pr__pfet_01v8 ad=0 pd=0 as=0 ps=0 w=5 l=15
**devattr s=58000,2116 d=58000,2116
X169 m9m10.t443 bias1.t143 VCC.t930 VCC.t18 sky130_fd_pr__pfet_01v8 ad=0 pd=0 as=0 ps=0 w=5 l=15
**devattr s=58000,2116 d=58000,2116
X170 dummy_9.t391 bias1.t144 dummy_9.t390 VCC.t48 sky130_fd_pr__pfet_01v8 ad=0 pd=0 as=0 ps=0 w=5 l=15
**devattr d=58000,2116
X171 dummy_9.t389 bias1.t145 dummy_9.t388 VCC.t96 sky130_fd_pr__pfet_01v8 ad=0 pd=0 as=0 ps=0 w=5 l=15
**devattr d=58000,2116
X172 a_46836_49340.t58 IN_P.t4 bias21.t25 VCC.t10 sky130_fd_pr__pfet_01v8 ad=0 pd=0 as=0 ps=0 w=5 l=0.18
**devattr s=58000,2116 d=58000,2116
X173 m9m10.t442 bias1.t146 VCC.t929 VCC.t42 sky130_fd_pr__pfet_01v8 ad=0 pd=0 as=0 ps=0 w=5 l=15
**devattr s=58000,2116 d=58000,2116
X174 VCC.t928 bias1.t147 m1m2.t446 VCC.t22 sky130_fd_pr__pfet_01v8 ad=0 pd=0 as=0 ps=0 w=5 l=15
**devattr s=58000,2116 d=58000,2116
X175 m9m10.t441 bias1.t148 VCC.t927 VCC.t28 sky130_fd_pr__pfet_01v8 ad=0 pd=0 as=0 ps=0 w=5 l=15
**devattr s=58000,2116 d=58000,2116
X176 VCC.t926 bias1.t149 m1m2.t445 VCC.t33 sky130_fd_pr__pfet_01v8 ad=0 pd=0 as=0 ps=0 w=5 l=15
**devattr s=58000,2116 d=58000,2116
X177 dummy_2.t77 VB_A.t12 dummy_2.t76 VCC.t1042 sky130_fd_pr__pfet_01v8 ad=0 pd=0 as=0 ps=0 w=5 l=5
**devattr d=58000,2116
X178 m9m10.t440 bias1.t150 VCC.t925 VCC.t15 sky130_fd_pr__pfet_01v8 ad=0 pd=0 as=0 ps=0 w=5 l=15
**devattr s=58000,2116 d=58000,2116
X179 m9m10.t439 bias1.t151 VCC.t924 VCC.t28 sky130_fd_pr__pfet_01v8 ad=0 pd=0 as=0 ps=0 w=5 l=15
**devattr s=58000,2116 d=58000,2116
X180 m9m10.t438 bias1.t152 VCC.t923 VCC.t87 sky130_fd_pr__pfet_01v8 ad=0 pd=0 as=0 ps=0 w=5 l=15
**devattr s=58000,2116 d=58000,2116
X181 m9m10.t437 bias1.t153 VCC.t922 VCC.t104 sky130_fd_pr__pfet_01v8 ad=0 pd=0 as=0 ps=0 w=5 l=15
**devattr s=58000,2116 d=58000,2116
X182 m9m10.t436 bias1.t154 VCC.t921 VCC.t110 sky130_fd_pr__pfet_01v8 ad=0 pd=0 as=0 ps=0 w=5 l=15
**devattr s=58000,2116 d=58000,2116
X183 m9m10.t435 bias1.t155 VCC.t920 VCC.t18 sky130_fd_pr__pfet_01v8 ad=0 pd=0 as=0 ps=0 w=5 l=15
**devattr s=58000,2116 d=58000,2116
X184 VCC.t919 bias1.t156 m1m2.t444 VCC.t116 sky130_fd_pr__pfet_01v8 ad=0 pd=0 as=0 ps=0 w=5 l=15
**devattr s=58000,2116 d=58000,2116
X185 dummy_9.t387 bias1.t157 dummy_9.t386 VCC.t51 sky130_fd_pr__pfet_01v8 ad=0 pd=0 as=0 ps=0 w=5 l=15
**devattr d=58000,2116
X186 OUT.t47 VB_B.t8 m11m12.t28 VSS.t19 sky130_fd_pr__nfet_01v8 ad=0 pd=0 as=0 ps=0 w=5 l=5
**devattr s=58000,2116 d=58000,2116
X187 m9m10.t434 bias1.t158 VCC.t918 VCC.t49 sky130_fd_pr__pfet_01v8 ad=0 pd=0 as=0 ps=0 w=5 l=15
**devattr s=58000,2116 d=58000,2116
X188 m9m10.t433 bias1.t159 VCC.t917 VCC.t18 sky130_fd_pr__pfet_01v8 ad=0 pd=0 as=0 ps=0 w=5 l=15
**devattr s=58000,2116 d=58000,2116
X189 VCC.t916 bias1.t160 m1m2.t443 VCC.t33 sky130_fd_pr__pfet_01v8 ad=0 pd=0 as=0 ps=0 w=5 l=15
**devattr s=58000,2116 d=58000,2116
X190 m9m10.t432 bias1.t161 VCC.t914 VCC.t15 sky130_fd_pr__pfet_01v8 ad=0 pd=0 as=0 ps=0 w=5 l=15
**devattr s=58000,2116 d=58000,2116
X191 m9m10.t431 bias1.t162 VCC.t913 VCC.t42 sky130_fd_pr__pfet_01v8 ad=0 pd=0 as=0 ps=0 w=5 l=15
**devattr s=58000,2116 d=58000,2116
X192 m9m10.t430 bias1.t163 VCC.t912 VCC.t110 sky130_fd_pr__pfet_01v8 ad=0 pd=0 as=0 ps=0 w=5 l=15
**devattr s=58000,2116 d=58000,2116
X193 m9m10.t429 bias1.t164 VCC.t911 VCC.t87 sky130_fd_pr__pfet_01v8 ad=0 pd=0 as=0 ps=0 w=5 l=15
**devattr s=58000,2116 d=58000,2116
X194 dummy_9.t385 bias1.t165 dummy_9.t384 VCC.t58 sky130_fd_pr__pfet_01v8 ad=0 pd=0 as=0 ps=0 w=5 l=15
**devattr d=58000,2116
X195 m9m10.t428 bias1.t166 VCC.t910 VCC.t110 sky130_fd_pr__pfet_01v8 ad=0 pd=0 as=0 ps=0 w=5 l=15
**devattr s=58000,2116 d=58000,2116
X196 VCC.t909 bias1.t167 m1m2.t442 VCC.t46 sky130_fd_pr__pfet_01v8 ad=0 pd=0 as=0 ps=0 w=5 l=15
**devattr s=58000,2116 d=58000,2116
X197 VCC.t908 bias1.t168 m1m2.t441 VCC.t24 sky130_fd_pr__pfet_01v8 ad=0 pd=0 as=0 ps=0 w=5 l=15
**devattr s=58000,2116 d=58000,2116
X198 dummy_9.t383 bias1.t169 dummy_9.t382 VCC.t48 sky130_fd_pr__pfet_01v8 ad=0 pd=0 as=0 ps=0 w=5 l=15
**devattr d=58000,2116
X199 VCC.t907 bias1.t170 m1m2.t440 VCC.t38 sky130_fd_pr__pfet_01v8 ad=0 pd=0 as=0 ps=0 w=5 l=15
**devattr s=58000,2116 d=58000,2116
X200 dummy_9.t381 bias1.t171 dummy_9.t380 VCC.t96 sky130_fd_pr__pfet_01v8 ad=0 pd=0 as=0 ps=0 w=5 l=15
**devattr d=58000,2116
X201 m9m10.t427 bias1.t172 VCC.t906 VCC.t49 sky130_fd_pr__pfet_01v8 ad=0 pd=0 as=0 ps=0 w=5 l=15
**devattr s=58000,2116 d=58000,2116
X202 dummy_4.t33 bias3.t41 dummy_4.t32 VSS.t0 sky130_fd_pr__nfet_01v8 ad=0 pd=0 as=0 ps=0 w=1.25 l=1
**devattr d=14500,616
X203 m9m10.t426 bias1.t173 VCC.t905 VCC.t18 sky130_fd_pr__pfet_01v8 ad=0 pd=0 as=0 ps=0 w=5 l=15
**devattr s=58000,2116 d=58000,2116
X204 OUT.t25 VB_A.t13 m9m10.t519 VCC.t1043 sky130_fd_pr__pfet_01v8 ad=0 pd=0 as=0 ps=0 w=5 l=5
**devattr s=58000,2116 d=58000,2116
X205 m9m10.t425 bias1.t174 VCC.t904 VCC.t49 sky130_fd_pr__pfet_01v8 ad=0 pd=0 as=0 ps=0 w=5 l=15
**devattr s=58000,2116 d=58000,2116
X206 dummy_9.t379 bias1.t175 dummy_9.t378 VCC.t51 sky130_fd_pr__pfet_01v8 ad=0 pd=0 as=0 ps=0 w=5 l=15
**devattr d=58000,2116
X207 VCC.t903 bias1.t176 m1m2.t439 VCC.t20 sky130_fd_pr__pfet_01v8 ad=0 pd=0 as=0 ps=0 w=5 l=15
**devattr s=58000,2116 d=58000,2116
X208 VCC.t902 bias1.t177 m1m2.t438 VCC.t64 sky130_fd_pr__pfet_01v8 ad=0 pd=0 as=0 ps=0 w=5 l=15
**devattr s=58000,2116 d=58000,2116
X209 dummy_3.t75 VB_B.t9 dummy_3.t74 VSS.t20 sky130_fd_pr__nfet_01v8 ad=0 pd=0 as=0 ps=0 w=5 l=5
**devattr d=58000,2116
X210 m9m10.t424 bias1.t178 VCC.t901 VCC.t87 sky130_fd_pr__pfet_01v8 ad=0 pd=0 as=0 ps=0 w=5 l=15
**devattr s=58000,2116 d=58000,2116
X211 dummy_9.t377 bias1.t179 dummy_9.t376 VCC.t58 sky130_fd_pr__pfet_01v8 ad=0 pd=0 as=0 ps=0 w=5 l=15
**devattr d=58000,2116
X212 m9m10.t423 bias1.t180 VCC.t900 VCC.t110 sky130_fd_pr__pfet_01v8 ad=0 pd=0 as=0 ps=0 w=5 l=15
**devattr s=58000,2116 d=58000,2116
X213 VCC.t899 bias1.t181 m1m2.t437 VCC.t38 sky130_fd_pr__pfet_01v8 ad=0 pd=0 as=0 ps=0 w=5 l=15
**devattr s=58000,2116 d=58000,2116
X214 m9m10.t422 bias1.t182 VCC.t898 VCC.t110 sky130_fd_pr__pfet_01v8 ad=0 pd=0 as=0 ps=0 w=5 l=15
**devattr s=58000,2116 d=58000,2116
X215 VCC.t897 bias1.t183 m1m2.t436 VCC.t38 sky130_fd_pr__pfet_01v8 ad=0 pd=0 as=0 ps=0 w=5 l=15
**devattr s=58000,2116 d=58000,2116
X216 m9m10.t421 bias1.t184 VCC.t896 VCC.t31 sky130_fd_pr__pfet_01v8 ad=0 pd=0 as=0 ps=0 w=5 l=15
**devattr s=58000,2116 d=58000,2116
X217 dummy_9.t375 bias1.t185 dummy_9.t374 VCC.t58 sky130_fd_pr__pfet_01v8 ad=0 pd=0 as=0 ps=0 w=5 l=15
**devattr d=58000,2116
X218 m9m10.t420 bias1.t186 VCC.t895 VCC.t104 sky130_fd_pr__pfet_01v8 ad=0 pd=0 as=0 ps=0 w=5 l=15
**devattr s=58000,2116 d=58000,2116
X219 m9m10.t419 bias1.t187 VCC.t894 VCC.t18 sky130_fd_pr__pfet_01v8 ad=0 pd=0 as=0 ps=0 w=5 l=15
**devattr s=58000,2116 d=58000,2116
X220 m9m10.t418 bias1.t188 VCC.t893 VCC.t42 sky130_fd_pr__pfet_01v8 ad=0 pd=0 as=0 ps=0 w=5 l=15
**devattr s=58000,2116 d=58000,2116
X221 m9m10.t417 bias1.t189 VCC.t892 VCC.t110 sky130_fd_pr__pfet_01v8 ad=0 pd=0 as=0 ps=0 w=5 l=15
**devattr s=58000,2116 d=58000,2116
X222 VCC.t891 bias1.t190 m1m2.t435 VCC.t46 sky130_fd_pr__pfet_01v8 ad=0 pd=0 as=0 ps=0 w=5 l=15
**devattr s=58000,2116 d=58000,2116
X223 VCC.t890 bias1.t191 m1m2.t434 VCC.t64 sky130_fd_pr__pfet_01v8 ad=0 pd=0 as=0 ps=0 w=5 l=15
**devattr s=58000,2116 d=58000,2116
X224 dummy_9.t373 bias1.t192 dummy_9.t372 VCC.t96 sky130_fd_pr__pfet_01v8 ad=0 pd=0 as=0 ps=0 w=5 l=15
**devattr d=58000,2116
X225 dummy_2.t75 VB_A.t14 dummy_2.t74 VCC.t1045 sky130_fd_pr__pfet_01v8 ad=0 pd=0 as=0 ps=0 w=5 l=5
**devattr d=58000,2116
X226 m9m10.t416 bias1.t193 VCC.t889 VCC.t59 sky130_fd_pr__pfet_01v8 ad=0 pd=0 as=0 ps=0 w=5 l=15
**devattr s=58000,2116 d=58000,2116
X227 m9m10.t415 bias1.t194 VCC.t888 VCC.t42 sky130_fd_pr__pfet_01v8 ad=0 pd=0 as=0 ps=0 w=5 l=15
**devattr s=58000,2116 d=58000,2116
X228 OUT.t24 VB_A.t15 m9m10.t516 VCC.t1043 sky130_fd_pr__pfet_01v8 ad=0 pd=0 as=0 ps=0 w=5 l=5
**devattr s=58000,2116 d=58000,2116