* NGSPICE file created from opamp_cascode.ext - technology: sky130A

.subckt opamp_cascode IN_P IN_M VCC VSS OUT VB_A VB_B IB
X0 m9m10 bias1 VCC VCC sky130_fd_pr__pfet_01v8 ad=1.45 pd=10.6 as=1.45 ps=10.6 w=5 l=15
**devattr s=58000,2116 d=58000,2116
X1 VCC bias1 m1m2 VCC sky130_fd_pr__pfet_01v8 ad=1.45 pd=10.6 as=1.45 ps=10.6 w=5 l=15
**devattr s=58000,2116 d=58000,2116
X2 m3m4 VB_B bias1 VSS sky130_fd_pr__nfet_01v8 ad=1.45 pd=10.6 as=1.45 ps=10.6 w=5 l=5
**devattr s=58000,2116 d=58000,2116
X3 dummy_9 bias1 dummy_9 VCC sky130_fd_pr__pfet_01v8 ad=1.45 pd=10.6 as=1.45 ps=10.6 w=5 l=15
**devattr d=58000,2116
X4 VCC bias1 m1m2 VCC sky130_fd_pr__pfet_01v8 ad=1.45 pd=10.6 as=1.45 ps=10.6 w=5 l=15
**devattr s=58000,2116 d=58000,2116
X5 dummy_9 bias1 dummy_9 VCC sky130_fd_pr__pfet_01v8 ad=1.45 pd=10.6 as=1.45 ps=10.6 w=5 l=15
**devattr d=58000,2116
X6 VCC bias1 m1m2 VCC sky130_fd_pr__pfet_01v8 ad=1.45 pd=10.6 as=1.45 ps=10.6 w=5 l=15
**devattr s=58000,2116 d=58000,2116
X7 m9m10 bias1 VCC VCC sky130_fd_pr__pfet_01v8 ad=1.45 pd=10.6 as=1.45 ps=10.6 w=5 l=15
**devattr s=58000,2116 d=58000,2116
X8 dummy_9 bias1 dummy_9 VCC sky130_fd_pr__pfet_01v8 ad=1.45 pd=10.6 as=1.45 ps=10.6 w=5 l=15
**devattr d=58000,2116
X9 m9m10 bias1 VCC VCC sky130_fd_pr__pfet_01v8 ad=1.45 pd=10.6 as=1.45 ps=10.6 w=5 l=15
**devattr s=58000,2116 d=58000,2116
X10 dummy_4 bias3 dummy_4 VSS sky130_fd_pr__nfet_01v8 ad=0.363 pd=3.08 as=0.363 ps=3.08 w=1.25 l=1
**devattr d=14500,616
X11 VCC bias1 m1m2 VCC sky130_fd_pr__pfet_01v8 ad=1.45 pd=10.6 as=1.45 ps=10.6 w=5 l=15
**devattr s=58000,2116 d=58000,2116
X12 m9m10 bias1 VCC VCC sky130_fd_pr__pfet_01v8 ad=1.45 pd=10.6 as=1.45 ps=10.6 w=5 l=15
**devattr s=58000,2116 d=58000,2116
X13 dummy_9 bias1 dummy_9 VCC sky130_fd_pr__pfet_01v8 ad=1.45 pd=10.6 as=1.45 ps=10.6 w=5 l=15
**devattr d=58000,2116
X14 dummy_9 bias1 dummy_9 VCC sky130_fd_pr__pfet_01v8 ad=1.45 pd=10.6 as=1.45 ps=10.6 w=5 l=15
**devattr d=58000,2116
X15 m9m10 bias1 VCC VCC sky130_fd_pr__pfet_01v8 ad=1.45 pd=10.6 as=1.45 ps=10.6 w=5 l=15
**devattr s=58000,2116 d=58000,2116
X16 dummy_4 bias3 dummy_4 VSS sky130_fd_pr__nfet_01v8 ad=0.363 pd=3.08 as=0.363 ps=3.08 w=1.25 l=1
**devattr d=14500,616
X17 m9m10 bias1 VCC VCC sky130_fd_pr__pfet_01v8 ad=1.45 pd=10.6 as=1.45 ps=10.6 w=5 l=15
**devattr s=58000,2116 d=58000,2116
X18 dummy_9 bias1 dummy_9 VCC sky130_fd_pr__pfet_01v8 ad=1.45 pd=10.6 as=1.45 ps=10.6 w=5 l=15
**devattr d=58000,2116
X19 VCC bias1 m1m2 VCC sky130_fd_pr__pfet_01v8 ad=1.45 pd=10.6 as=1.45 ps=10.6 w=5 l=15
**devattr s=58000,2116 d=58000,2116
X20 m9m10 bias1 VCC VCC sky130_fd_pr__pfet_01v8 ad=1.45 pd=10.6 as=1.45 ps=10.6 w=5 l=15
**devattr s=58000,2116 d=58000,2116
X21 m9m10 bias1 VCC VCC sky130_fd_pr__pfet_01v8 ad=1.45 pd=10.6 as=1.45 ps=10.6 w=5 l=15
**devattr s=58000,2116 d=58000,2116
X22 m1m2 VB_A bias1 VCC sky130_fd_pr__pfet_01v8 ad=1.45 pd=10.6 as=1.45 ps=10.6 w=5 l=5
**devattr s=58000,2116 d=58000,2116
X23 dummy_9 bias1 dummy_9 VCC sky130_fd_pr__pfet_01v8 ad=1.45 pd=10.6 as=1.45 ps=10.6 w=5 l=15
**devattr d=58000,2116
X24 m9m10 bias1 VCC VCC sky130_fd_pr__pfet_01v8 ad=1.45 pd=10.6 as=1.45 ps=10.6 w=5 l=15
**devattr s=58000,2116 d=58000,2116
X25 m9m10 bias1 VCC VCC sky130_fd_pr__pfet_01v8 ad=1.45 pd=10.6 as=1.45 ps=10.6 w=5 l=15
**devattr s=58000,2116 d=58000,2116
X26 dummy_100 IB dummy_100 VCC sky130_fd_pr__pfet_01v8 ad=1.45 pd=10.6 as=1.45 ps=10.6 w=5 l=3
**devattr d=58000,2116
X27 VCC bias1 m1m2 VCC sky130_fd_pr__pfet_01v8 ad=1.45 pd=10.6 as=1.45 ps=10.6 w=5 l=15
**devattr s=58000,2116 d=58000,2116
X28 dummy_3 VB_B dummy_3 VSS sky130_fd_pr__nfet_01v8 ad=1.45 pd=10.6 as=1.45 ps=10.6 w=5 l=5
**devattr d=58000,2116
X29 VCC bias1 m1m2 VCC sky130_fd_pr__pfet_01v8 ad=1.45 pd=10.6 as=1.45 ps=10.6 w=5 l=15
**devattr s=58000,2116 d=58000,2116
X30 m9m10 bias1 VCC VCC sky130_fd_pr__pfet_01v8 ad=1.45 pd=10.6 as=1.45 ps=10.6 w=5 l=15
**devattr s=58000,2116 d=58000,2116
X31 m9m10 bias1 VCC VCC sky130_fd_pr__pfet_01v8 ad=1.45 pd=10.6 as=1.45 ps=10.6 w=5 l=15
**devattr s=58000,2116 d=58000,2116
X32 dummy_9 bias1 dummy_9 VCC sky130_fd_pr__pfet_01v8 ad=1.45 pd=10.6 as=1.45 ps=10.6 w=5 l=15
**devattr d=58000,2116
X33 dummy_2 VB_A dummy_2 VCC sky130_fd_pr__pfet_01v8 ad=1.45 pd=10.6 as=1.45 ps=10.6 w=5 l=5
**devattr d=58000,2116
X34 dummy_3 VB_B dummy_3 VSS sky130_fd_pr__nfet_01v8 ad=1.45 pd=10.6 as=1.45 ps=10.6 w=5 l=5
**devattr d=58000,2116
X35 VCC bias1 m1m2 VCC sky130_fd_pr__pfet_01v8 ad=1.45 pd=10.6 as=1.45 ps=10.6 w=5 l=15
**devattr s=58000,2116 d=58000,2116
X36 m9m10 bias1 VCC VCC sky130_fd_pr__pfet_01v8 ad=1.45 pd=10.6 as=1.45 ps=10.6 w=5 l=15
**devattr s=58000,2116 d=58000,2116
X37 m9m10 bias1 VCC VCC sky130_fd_pr__pfet_01v8 ad=1.45 pd=10.6 as=1.45 ps=10.6 w=5 l=15
**devattr s=58000,2116 d=58000,2116
X38 m9m10 bias1 VCC VCC sky130_fd_pr__pfet_01v8 ad=1.45 pd=10.6 as=1.45 ps=10.6 w=5 l=15
**devattr s=58000,2116 d=58000,2116
X39 m9m10 bias1 VCC VCC sky130_fd_pr__pfet_01v8 ad=1.45 pd=10.6 as=1.45 ps=10.6 w=5 l=15
**devattr s=58000,2116 d=58000,2116
X40 VCC bias1 m1m2 VCC sky130_fd_pr__pfet_01v8 ad=1.45 pd=10.6 as=1.45 ps=10.6 w=5 l=15
**devattr s=58000,2116 d=58000,2116
X41 dummy_9 bias1 dummy_9 VCC sky130_fd_pr__pfet_01v8 ad=1.45 pd=10.6 as=1.45 ps=10.6 w=5 l=15
**devattr d=58000,2116
X42 VCC bias1 m1m2 VCC sky130_fd_pr__pfet_01v8 ad=1.45 pd=10.6 as=1.45 ps=10.6 w=5 l=15
**devattr s=58000,2116 d=58000,2116
X43 VCC bias1 m1m2 VCC sky130_fd_pr__pfet_01v8 ad=1.45 pd=10.6 as=1.45 ps=10.6 w=5 l=15
**devattr s=58000,2116 d=58000,2116
X44 m9m10 bias1 VCC VCC sky130_fd_pr__pfet_01v8 ad=1.45 pd=10.6 as=1.45 ps=10.6 w=5 l=15
**devattr s=58000,2116 d=58000,2116
X45 dummy_100 IB dummy_100 VCC sky130_fd_pr__pfet_01v8 ad=1.45 pd=10.6 as=1.45 ps=10.6 w=5 l=3
**devattr d=58000,2116
X46 m9m10 bias1 VCC VCC sky130_fd_pr__pfet_01v8 ad=1.45 pd=10.6 as=1.45 ps=10.6 w=5 l=15
**devattr s=58000,2116 d=58000,2116
X47 OUT VB_A m9m10 VCC sky130_fd_pr__pfet_01v8 ad=1.45 pd=10.6 as=1.45 ps=10.6 w=5 l=5
**devattr s=58000,2116 d=58000,2116
X48 m1m2 VB_A bias1 VCC sky130_fd_pr__pfet_01v8 ad=1.45 pd=10.6 as=1.45 ps=10.6 w=5 l=5
**devattr s=58000,2116 d=58000,2116
X49 VCC bias1 m1m2 VCC sky130_fd_pr__pfet_01v8 ad=1.45 pd=10.6 as=1.45 ps=10.6 w=5 l=15
**devattr s=58000,2116 d=58000,2116
X50 m9m10 bias1 VCC VCC sky130_fd_pr__pfet_01v8 ad=1.45 pd=10.6 as=1.45 ps=10.6 w=5 l=15
**devattr s=58000,2116 d=58000,2116
X51 VCC bias1 m1m2 VCC sky130_fd_pr__pfet_01v8 ad=1.45 pd=10.6 as=1.45 ps=10.6 w=5 l=15
**devattr s=58000,2116 d=58000,2116
X52 m9m10 bias1 VCC VCC sky130_fd_pr__pfet_01v8 ad=1.45 pd=10.6 as=1.45 ps=10.6 w=5 l=15
**devattr s=58000,2116 d=58000,2116
X53 dummy_9 bias1 dummy_9 VCC sky130_fd_pr__pfet_01v8 ad=1.45 pd=10.6 as=1.45 ps=10.6 w=5 l=15
**devattr d=58000,2116
X54 dummy_9 bias1 dummy_9 VCC sky130_fd_pr__pfet_01v8 ad=1.45 pd=10.6 as=1.45 ps=10.6 w=5 l=15
**devattr d=58000,2116
X55 VCC bias1 m1m2 VCC sky130_fd_pr__pfet_01v8 ad=1.45 pd=10.6 as=1.45 ps=10.6 w=5 l=15
**devattr s=58000,2116 d=58000,2116
X56 dummy_4 bias3 dummy_4 VSS sky130_fd_pr__nfet_01v8 ad=0.363 pd=3.08 as=0.363 ps=3.08 w=1.25 l=1
**devattr d=14500,616
X57 m9m10 bias1 VCC VCC sky130_fd_pr__pfet_01v8 ad=1.45 pd=10.6 as=1.45 ps=10.6 w=5 l=15
**devattr s=58000,2116 d=58000,2116
X58 dummy_2 VB_A dummy_2 VCC sky130_fd_pr__pfet_01v8 ad=1.45 pd=10.6 as=1.45 ps=10.6 w=5 l=5
**devattr d=58000,2116
X59 VCC bias1 m1m2 VCC sky130_fd_pr__pfet_01v8 ad=1.45 pd=10.6 as=1.45 ps=10.6 w=5 l=15
**devattr s=58000,2116 d=58000,2116
X60 VCC bias1 m1m2 VCC sky130_fd_pr__pfet_01v8 ad=1.45 pd=10.6 as=1.45 ps=10.6 w=5 l=15
**devattr s=58000,2116 d=58000,2116
X61 m9m10 bias1 VCC VCC sky130_fd_pr__pfet_01v8 ad=1.45 pd=10.6 as=1.45 ps=10.6 w=5 l=15
**devattr s=58000,2116 d=58000,2116
X62 m9m10 bias1 VCC VCC sky130_fd_pr__pfet_01v8 ad=1.45 pd=10.6 as=1.45 ps=10.6 w=5 l=15
**devattr s=58000,2116 d=58000,2116
X63 dummy_9 bias1 dummy_9 VCC sky130_fd_pr__pfet_01v8 ad=1.45 pd=10.6 as=1.45 ps=10.6 w=5 l=15
**devattr d=58000,2116
X64 VCC bias1 m1m2 VCC sky130_fd_pr__pfet_01v8 ad=1.45 pd=10.6 as=1.45 ps=10.6 w=5 l=15
**devattr s=58000,2116 d=58000,2116
X65 VCC bias1 m1m2 VCC sky130_fd_pr__pfet_01v8 ad=1.45 pd=10.6 as=1.45 ps=10.6 w=5 l=15
**devattr s=58000,2116 d=58000,2116
X66 a_46836_49340# IN_M bias3 VCC sky130_fd_pr__pfet_01v8 ad=1.45 pd=10.6 as=1.45 ps=10.6 w=5 l=0.18
**devattr s=58000,2116 d=58000,2116
X67 m9m10 bias1 VCC VCC sky130_fd_pr__pfet_01v8 ad=1.45 pd=10.6 as=1.45 ps=10.6 w=5 l=15
**devattr s=58000,2116 d=58000,2116
X68 m9m10 bias1 VCC VCC sky130_fd_pr__pfet_01v8 ad=1.45 pd=10.6 as=1.45 ps=10.6 w=5 l=15
**devattr s=58000,2116 d=58000,2116
X69 VCC bias1 m1m2 VCC sky130_fd_pr__pfet_01v8 ad=1.45 pd=10.6 as=1.45 ps=10.6 w=5 l=15
**devattr s=58000,2116 d=58000,2116
X70 dummy_9 bias1 dummy_9 VCC sky130_fd_pr__pfet_01v8 ad=1.45 pd=10.6 as=1.45 ps=10.6 w=5 l=15
**devattr d=58000,2116
X71 m9m10 bias1 VCC VCC sky130_fd_pr__pfet_01v8 ad=1.45 pd=10.6 as=1.45 ps=10.6 w=5 l=15
**devattr s=58000,2116 d=58000,2116
X72 VCC bias1 m1m2 VCC sky130_fd_pr__pfet_01v8 ad=1.45 pd=10.6 as=1.45 ps=10.6 w=5 l=15
**devattr s=58000,2116 d=58000,2116
X73 m9m10 bias1 VCC VCC sky130_fd_pr__pfet_01v8 ad=1.45 pd=10.6 as=1.45 ps=10.6 w=5 l=15
**devattr s=58000,2116 d=58000,2116
X74 dummy_9 bias1 dummy_9 VCC sky130_fd_pr__pfet_01v8 ad=1.45 pd=10.6 as=1.45 ps=10.6 w=5 l=15
**devattr d=58000,2116
X75 m9m10 bias1 VCC VCC sky130_fd_pr__pfet_01v8 ad=1.45 pd=10.6 as=1.45 ps=10.6 w=5 l=15
**devattr s=58000,2116 d=58000,2116
X76 dummy_9 bias1 dummy_9 VCC sky130_fd_pr__pfet_01v8 ad=1.45 pd=10.6 as=1.45 ps=10.6 w=5 l=15
**devattr d=58000,2116
X77 dummy_9 bias1 dummy_9 VCC sky130_fd_pr__pfet_01v8 ad=1.45 pd=10.6 as=1.45 ps=10.6 w=5 l=15
**devattr d=58000,2116
X78 m9m10 bias1 VCC VCC sky130_fd_pr__pfet_01v8 ad=1.45 pd=10.6 as=1.45 ps=10.6 w=5 l=15
**devattr s=58000,2116 d=58000,2116
X79 VCC bias1 m1m2 VCC sky130_fd_pr__pfet_01v8 ad=1.45 pd=10.6 as=1.45 ps=10.6 w=5 l=15
**devattr s=58000,2116 d=58000,2116
X80 m9m10 bias1 VCC VCC sky130_fd_pr__pfet_01v8 ad=1.45 pd=10.6 as=1.45 ps=10.6 w=5 l=15
**devattr s=58000,2116 d=58000,2116
X81 m9m10 bias1 VCC VCC sky130_fd_pr__pfet_01v8 ad=1.45 pd=10.6 as=1.45 ps=10.6 w=5 l=15
**devattr s=58000,2116 d=58000,2116
X82 VCC bias1 m1m2 VCC sky130_fd_pr__pfet_01v8 ad=1.45 pd=10.6 as=1.45 ps=10.6 w=5 l=15
**devattr s=58000,2116 d=58000,2116
X83 m9m10 bias1 VCC VCC sky130_fd_pr__pfet_01v8 ad=1.45 pd=10.6 as=1.45 ps=10.6 w=5 l=15
**devattr s=58000,2116 d=58000,2116
X84 VCC bias1 m1m2 VCC sky130_fd_pr__pfet_01v8 ad=1.45 pd=10.6 as=1.45 ps=10.6 w=5 l=15
**devattr s=58000,2116 d=58000,2116
X85 m9m10 bias1 VCC VCC sky130_fd_pr__pfet_01v8 ad=1.45 pd=10.6 as=1.45 ps=10.6 w=5 l=15
**devattr s=58000,2116 d=58000,2116
X86 dummy_9 bias1 dummy_9 VCC sky130_fd_pr__pfet_01v8 ad=1.45 pd=10.6 as=1.45 ps=10.6 w=5 l=15
**devattr d=58000,2116
X87 VCC bias1 m1m2 VCC sky130_fd_pr__pfet_01v8 ad=1.45 pd=10.6 as=1.45 ps=10.6 w=5 l=15
**devattr s=58000,2116 d=58000,2116
X88 dummy_9 bias1 dummy_9 VCC sky130_fd_pr__pfet_01v8 ad=1.45 pd=10.6 as=1.45 ps=10.6 w=5 l=15
**devattr d=58000,2116
X89 m9m10 bias1 VCC VCC sky130_fd_pr__pfet_01v8 ad=1.45 pd=10.6 as=1.45 ps=10.6 w=5 l=15
**devattr s=58000,2116 d=58000,2116
X90 VCC bias1 m1m2 VCC sky130_fd_pr__pfet_01v8 ad=1.45 pd=10.6 as=1.45 ps=10.6 w=5 l=15
**devattr s=58000,2116 d=58000,2116
X91 dummy_9 bias1 dummy_9 VCC sky130_fd_pr__pfet_01v8 ad=1.45 pd=10.6 as=1.45 ps=10.6 w=5 l=15
**devattr d=58000,2116
X92 m3m4 VB_B bias1 VSS sky130_fd_pr__nfet_01v8 ad=1.45 pd=10.6 as=1.45 ps=10.6 w=5 l=5
**devattr s=58000,2116 d=58000,2116
X93 dummy_9 bias1 dummy_9 VCC sky130_fd_pr__pfet_01v8 ad=1.45 pd=10.6 as=1.45 ps=10.6 w=5 l=15
**devattr d=58000,2116
X94 m9m10 bias1 VCC VCC sky130_fd_pr__pfet_01v8 ad=1.45 pd=10.6 as=1.45 ps=10.6 w=5 l=15
**devattr s=58000,2116 d=58000,2116
X95 VCC bias1 m1m2 VCC sky130_fd_pr__pfet_01v8 ad=1.45 pd=10.6 as=1.45 ps=10.6 w=5 l=15
**devattr s=58000,2116 d=58000,2116
X96 VCC bias1 m1m2 VCC sky130_fd_pr__pfet_01v8 ad=1.45 pd=10.6 as=1.45 ps=10.6 w=5 l=15
**devattr s=58000,2116 d=58000,2116
X97 m9m10 bias1 VCC VCC sky130_fd_pr__pfet_01v8 ad=1.45 pd=10.6 as=1.45 ps=10.6 w=5 l=15
**devattr s=58000,2116 d=58000,2116
X98 VCC bias1 m1m2 VCC sky130_fd_pr__pfet_01v8 ad=1.45 pd=10.6 as=1.45 ps=10.6 w=5 l=15
**devattr s=58000,2116 d=58000,2116
X99 VCC bias1 m1m2 VCC sky130_fd_pr__pfet_01v8 ad=1.45 pd=10.6 as=1.45 ps=10.6 w=5 l=15
**devattr s=58000,2116 d=58000,2116
X100 VCC bias1 m1m2 VCC sky130_fd_pr__pfet_01v8 ad=1.45 pd=10.6 as=1.45 ps=10.6 w=5 l=15
**devattr s=58000,2116 d=58000,2116
X101 dummy_9 bias1 dummy_9 VCC sky130_fd_pr__pfet_01v8 ad=1.45 pd=10.6 as=1.45 ps=10.6 w=5 l=15
**devattr d=58000,2116
X102 VCC bias1 m1m2 VCC sky130_fd_pr__pfet_01v8 ad=1.45 pd=10.6 as=1.45 ps=10.6 w=5 l=15
**devattr s=58000,2116 d=58000,2116
X103 bias21 IN_P a_46836_49340# VCC sky130_fd_pr__pfet_01v8 ad=1.45 pd=10.6 as=1.45 ps=10.6 w=5 l=0.18
**devattr s=58000,2116 d=58000,2116
X104 m9m10 VB_A OUT VCC sky130_fd_pr__pfet_01v8 ad=1.45 pd=10.6 as=1.45 ps=10.6 w=5 l=5
**devattr s=58000,2116 d=58000,2116
X105 VCC bias1 m1m2 VCC sky130_fd_pr__pfet_01v8 ad=1.45 pd=10.6 as=1.45 ps=10.6 w=5 l=15
**devattr s=58000,2116 d=58000,2116
X106 VCC bias1 m1m2 VCC sky130_fd_pr__pfet_01v8 ad=1.45 pd=10.6 as=1.45 ps=10.6 w=5 l=15
**devattr s=58000,2116 d=58000,2116
X107 dummy_100 IB dummy_100 VCC sky130_fd_pr__pfet_01v8 ad=1.45 pd=10.6 as=1.45 ps=10.6 w=5 l=3
**devattr d=58000,2116
X108 bias1 VB_A m1m2 VCC sky130_fd_pr__pfet_01v8 ad=1.45 pd=10.6 as=1.45 ps=10.6 w=5 l=5
**devattr s=58000,2116 d=58000,2116
X109 m9m10 bias1 VCC VCC sky130_fd_pr__pfet_01v8 ad=1.45 pd=10.6 as=1.45 ps=10.6 w=5 l=15
**devattr s=58000,2116 d=58000,2116
X110 VCC bias1 m1m2 VCC sky130_fd_pr__pfet_01v8 ad=1.45 pd=10.6 as=1.45 ps=10.6 w=5 l=15
**devattr s=58000,2116 d=58000,2116
X111 VCC bias1 m1m2 VCC sky130_fd_pr__pfet_01v8 ad=1.45 pd=10.6 as=1.45 ps=10.6 w=5 l=15
**devattr s=58000,2116 d=58000,2116
X112 m9m10 bias1 VCC VCC sky130_fd_pr__pfet_01v8 ad=1.45 pd=10.6 as=1.45 ps=10.6 w=5 l=15
**devattr s=58000,2116 d=58000,2116
X113 dummy_9 bias1 dummy_9 VCC sky130_fd_pr__pfet_01v8 ad=1.45 pd=10.6 as=1.45 ps=10.6 w=5 l=15
**devattr d=58000,2116
X114 m9m10 bias1 VCC VCC sky130_fd_pr__pfet_01v8 ad=1.45 pd=10.6 as=1.45 ps=10.6 w=5 l=15
**devattr s=58000,2116 d=58000,2116
X115 dummy_9 bias1 dummy_9 VCC sky130_fd_pr__pfet_01v8 ad=1.45 pd=10.6 as=1.45 ps=10.6 w=5 l=15
**devattr d=58000,2116
X116 m9m10 bias1 VCC VCC sky130_fd_pr__pfet_01v8 ad=1.45 pd=10.6 as=1.45 ps=10.6 w=5 l=15
**devattr s=58000,2116 d=58000,2116
X117 VCC bias1 m1m2 VCC sky130_fd_pr__pfet_01v8 ad=1.45 pd=10.6 as=1.45 ps=10.6 w=5 l=15
**devattr s=58000,2116 d=58000,2116
X118 m9m10 bias1 VCC VCC sky130_fd_pr__pfet_01v8 ad=1.45 pd=10.6 as=1.45 ps=10.6 w=5 l=15
**devattr s=58000,2116 d=58000,2116
X119 dummy_9 bias1 dummy_9 VCC sky130_fd_pr__pfet_01v8 ad=1.45 pd=10.6 as=1.45 ps=10.6 w=5 l=15
**devattr d=58000,2116
X120 VCC bias1 m1m2 VCC sky130_fd_pr__pfet_01v8 ad=1.45 pd=10.6 as=1.45 ps=10.6 w=5 l=15
**devattr s=58000,2116 d=58000,2116
X121 a_46836_49340# IN_P bias21 VCC sky130_fd_pr__pfet_01v8 ad=1.45 pd=10.6 as=1.45 ps=10.6 w=5 l=0.18
**devattr s=58000,2116 d=58000,2116
X122 m9m10 bias1 VCC VCC sky130_fd_pr__pfet_01v8 ad=1.45 pd=10.6 as=1.45 ps=10.6 w=5 l=15
**devattr s=58000,2116 d=58000,2116
X123 VCC bias1 m1m2 VCC sky130_fd_pr__pfet_01v8 ad=1.45 pd=10.6 as=1.45 ps=10.6 w=5 l=15
**devattr s=58000,2116 d=58000,2116
X124 VCC bias1 m1m2 VCC sky130_fd_pr__pfet_01v8 ad=1.45 pd=10.6 as=1.45 ps=10.6 w=5 l=15
**devattr s=58000,2116 d=58000,2116
X125 bias1 VB_A m1m2 VCC sky130_fd_pr__pfet_01v8 ad=1.45 pd=10.6 as=1.45 ps=10.6 w=5 l=5
**devattr s=58000,2116 d=58000,2116
X126 m9m10 bias1 VCC VCC sky130_fd_pr__pfet_01v8 ad=1.45 pd=10.6 as=1.45 ps=10.6 w=5 l=15
**devattr s=58000,2116 d=58000,2116
X127 a_46836_49340# IN_P bias21 VCC sky130_fd_pr__pfet_01v8 ad=1.45 pd=10.6 as=1.45 ps=10.6 w=5 l=0.18
**devattr s=58000,2116 d=58000,2116
X128 a_46836_49340# IN_M bias3 VCC sky130_fd_pr__pfet_01v8 ad=1.45 pd=10.6 as=1.45 ps=10.6 w=5 l=0.18
**devattr s=58000,2116 d=58000,2116
X129 dummy_3 VB_B dummy_3 VSS sky130_fd_pr__nfet_01v8 ad=1.45 pd=10.6 as=1.45 ps=10.6 w=5 l=5
**devattr d=58000,2116
X130 m9m10 bias1 VCC VCC sky130_fd_pr__pfet_01v8 ad=1.45 pd=10.6 as=1.45 ps=10.6 w=5 l=15
**devattr s=58000,2116 d=58000,2116
X131 VCC bias1 m1m2 VCC sky130_fd_pr__pfet_01v8 ad=1.45 pd=10.6 as=1.45 ps=10.6 w=5 l=15
**devattr s=58000,2116 d=58000,2116
X132 VCC bias1 m1m2 VCC sky130_fd_pr__pfet_01v8 ad=1.45 pd=10.6 as=1.45 ps=10.6 w=5 l=15
**devattr s=58000,2116 d=58000,2116
X133 dummy_9 bias1 dummy_9 VCC sky130_fd_pr__pfet_01v8 ad=1.45 pd=10.6 as=1.45 ps=10.6 w=5 l=15
**devattr d=58000,2116
X134 m9m10 bias1 VCC VCC sky130_fd_pr__pfet_01v8 ad=1.45 pd=10.6 as=1.45 ps=10.6 w=5 l=15
**devattr s=58000,2116 d=58000,2116
X135 VCC bias1 m1m2 VCC sky130_fd_pr__pfet_01v8 ad=1.45 pd=10.6 as=1.45 ps=10.6 w=5 l=15
**devattr s=58000,2116 d=58000,2116
X136 m9m10 bias1 VCC VCC sky130_fd_pr__pfet_01v8 ad=1.45 pd=10.6 as=1.45 ps=10.6 w=5 l=15
**devattr s=58000,2116 d=58000,2116
X137 VCC bias1 m1m2 VCC sky130_fd_pr__pfet_01v8 ad=1.45 pd=10.6 as=1.45 ps=10.6 w=5 l=15
**devattr s=58000,2116 d=58000,2116
X138 m9m10 VB_A OUT VCC sky130_fd_pr__pfet_01v8 ad=1.45 pd=10.6 as=1.45 ps=10.6 w=5 l=5
**devattr s=58000,2116 d=58000,2116
X139 m9m10 bias1 VCC VCC sky130_fd_pr__pfet_01v8 ad=1.45 pd=10.6 as=1.45 ps=10.6 w=5 l=15
**devattr s=58000,2116 d=58000,2116
X140 VCC bias1 m1m2 VCC sky130_fd_pr__pfet_01v8 ad=1.45 pd=10.6 as=1.45 ps=10.6 w=5 l=15
**devattr s=58000,2116 d=58000,2116
X141 VCC bias1 m1m2 VCC sky130_fd_pr__pfet_01v8 ad=1.45 pd=10.6 as=1.45 ps=10.6 w=5 l=15
**devattr s=58000,2116 d=58000,2116
X142 VCC bias1 m1m2 VCC sky130_fd_pr__pfet_01v8 ad=1.45 pd=10.6 as=1.45 ps=10.6 w=5 l=15
**devattr s=58000,2116 d=58000,2116
X143 bias1 VB_A m1m2 VCC sky130_fd_pr__pfet_01v8 ad=1.45 pd=10.6 as=1.45 ps=10.6 w=5 l=5
**devattr s=58000,2116 d=58000,2116
X144 VCC bias1 m1m2 VCC sky130_fd_pr__pfet_01v8 ad=1.45 pd=10.6 as=1.45 ps=10.6 w=5 l=15
**devattr s=58000,2116 d=58000,2116
X145 m11m12 VB_B OUT VSS sky130_fd_pr__nfet_01v8 ad=1.45 pd=10.6 as=1.45 ps=10.6 w=5 l=5
**devattr s=58000,2116 d=58000,2116
X146 m9m10 bias1 VCC VCC sky130_fd_pr__pfet_01v8 ad=1.45 pd=10.6 as=1.45 ps=10.6 w=5 l=15
**devattr s=58000,2116 d=58000,2116
X147 dummy_2 VB_A dummy_2 VCC sky130_fd_pr__pfet_01v8 ad=1.45 pd=10.6 as=1.45 ps=10.6 w=5 l=5
**devattr d=58000,2116
X148 m9m10 bias1 VCC VCC sky130_fd_pr__pfet_01v8 ad=1.45 pd=10.6 as=1.45 ps=10.6 w=5 l=15
**devattr s=58000,2116 d=58000,2116
X149 VCC bias1 m1m2 VCC sky130_fd_pr__pfet_01v8 ad=1.45 pd=10.6 as=1.45 ps=10.6 w=5 l=15
**devattr s=58000,2116 d=58000,2116
X150 dummy_9 bias1 dummy_9 VCC sky130_fd_pr__pfet_01v8 ad=1.45 pd=10.6 as=1.45 ps=10.6 w=5 l=15
**devattr d=58000,2116
X151 OUT VB_B m11m12 VSS sky130_fd_pr__nfet_01v8 ad=1.45 pd=10.6 as=1.45 ps=10.6 w=5 l=5
**devattr s=58000,2116 d=58000,2116
X152 m9m10 bias1 VCC VCC sky130_fd_pr__pfet_01v8 ad=1.45 pd=10.6 as=1.45 ps=10.6 w=5 l=15
**devattr s=58000,2116 d=58000,2116
X153 VCC bias1 m1m2 VCC sky130_fd_pr__pfet_01v8 ad=1.45 pd=10.6 as=1.45 ps=10.6 w=5 l=15
**devattr s=58000,2116 d=58000,2116
X154 dummy_9 bias1 dummy_9 VCC sky130_fd_pr__pfet_01v8 ad=1.45 pd=10.6 as=1.45 ps=10.6 w=5 l=15
**devattr d=58000,2116
X155 m9m10 bias1 VCC VCC sky130_fd_pr__pfet_01v8 ad=1.45 pd=10.6 as=1.45 ps=10.6 w=5 l=15
**devattr s=58000,2116 d=58000,2116
X156 m9m10 bias1 VCC VCC sky130_fd_pr__pfet_01v8 ad=1.45 pd=10.6 as=1.45 ps=10.6 w=5 l=15
**devattr s=58000,2116 d=58000,2116
X157 dummy_9 bias1 dummy_9 VCC sky130_fd_pr__pfet_01v8 ad=1.45 pd=10.6 as=1.45 ps=10.6 w=5 l=15
**devattr d=58000,2116
X158 VCC bias1 m1m2 VCC sky130_fd_pr__pfet_01v8 ad=1.45 pd=10.6 as=1.45 ps=10.6 w=5 l=15
**devattr s=58000,2116 d=58000,2116
X159 m9m10 bias1 VCC VCC sky130_fd_pr__pfet_01v8 ad=1.45 pd=10.6 as=1.45 ps=10.6 w=5 l=15
**devattr s=58000,2116 d=58000,2116
X160 VCC bias1 m1m2 VCC sky130_fd_pr__pfet_01v8 ad=1.45 pd=10.6 as=1.45 ps=10.6 w=5 l=15
**devattr s=58000,2116 d=58000,2116
X161 m9m10 bias1 VCC VCC sky130_fd_pr__pfet_01v8 ad=1.45 pd=10.6 as=1.45 ps=10.6 w=5 l=15
**devattr s=58000,2116 d=58000,2116
X162 dummy_3 VB_B dummy_3 VSS sky130_fd_pr__nfet_01v8 ad=1.45 pd=10.6 as=1.45 ps=10.6 w=5 l=5
**devattr d=58000,2116
X163 VCC bias1 m1m2 VCC sky130_fd_pr__pfet_01v8 ad=1.45 pd=10.6 as=1.45 ps=10.6 w=5 l=15
**devattr s=58000,2116 d=58000,2116
X164 bias21 IN_P a_46836_49340# VCC sky130_fd_pr__pfet_01v8 ad=1.45 pd=10.6 as=1.45 ps=10.6 w=5 l=0.18
**devattr s=58000,2116 d=58000,2116
X165 m9m10 VB_A OUT VCC sky130_fd_pr__pfet_01v8 ad=1.45 pd=10.6 as=1.45 ps=10.6 w=5 l=5
**devattr s=58000,2116 d=58000,2116
X166 m9m10 bias1 VCC VCC sky130_fd_pr__pfet_01v8 ad=1.45 pd=10.6 as=1.45 ps=10.6 w=5 l=15
**devattr s=58000,2116 d=58000,2116
X167 m9m10 bias1 VCC VCC sky130_fd_pr__pfet_01v8 ad=1.45 pd=10.6 as=1.45 ps=10.6 w=5 l=15
**devattr s=58000,2116 d=58000,2116
X168 VCC bias1 m1m2 VCC sky130_fd_pr__pfet_01v8 ad=1.45 pd=10.6 as=1.45 ps=10.6 w=5 l=15
**devattr s=58000,2116 d=58000,2116
X169 m9m10 bias1 VCC VCC sky130_fd_pr__pfet_01v8 ad=1.45 pd=10.6 as=1.45 ps=10.6 w=5 l=15
**devattr s=58000,2116 d=58000,2116
X170 dummy_9 bias1 dummy_9 VCC sky130_fd_pr__pfet_01v8 ad=1.45 pd=10.6 as=1.45 ps=10.6 w=5 l=15
**devattr d=58000,2116
X171 dummy_9 bias1 dummy_9 VCC sky130_fd_pr__pfet_01v8 ad=1.45 pd=10.6 as=1.45 ps=10.6 w=5 l=15
**devattr d=58000,2116
X172 a_46836_49340# IN_P bias21 VCC sky130_fd_pr__pfet_01v8 ad=1.45 pd=10.6 as=1.45 ps=10.6 w=5 l=0.18
**devattr s=58000,2116 d=58000,2116
X173 m9m10 bias1 VCC VCC sky130_fd_pr__pfet_01v8 ad=1.45 pd=10.6 as=1.45 ps=10.6 w=5 l=15
**devattr s=58000,2116 d=58000,2116
X174 VCC bias1 m1m2 VCC sky130_fd_pr__pfet_01v8 ad=1.45 pd=10.6 as=1.45 ps=10.6 w=5 l=15
**devattr s=58000,2116 d=58000,2116
X175 m9m10 bias1 VCC VCC sky130_fd_pr__pfet_01v8 ad=1.45 pd=10.6 as=1.45 ps=10.6 w=5 l=15
**devattr s=58000,2116 d=58000,2116
X176 VCC bias1 m1m2 VCC sky130_fd_pr__pfet_01v8 ad=1.45 pd=10.6 as=1.45 ps=10.6 w=5 l=15
**devattr s=58000,2116 d=58000,2116
X177 dummy_2 VB_A dummy_2 VCC sky130_fd_pr__pfet_01v8 ad=1.45 pd=10.6 as=1.45 ps=10.6 w=5 l=5
**devattr d=58000,2116
X178 m9m10 bias1 VCC VCC sky130_fd_pr__pfet_01v8 ad=1.45 pd=10.6 as=1.45 ps=10.6 w=5 l=15
**devattr s=58000,2116 d=58000,2116
X179 m9m10 bias1 VCC VCC sky130_fd_pr__pfet_01v8 ad=1.45 pd=10.6 as=1.45 ps=10.6 w=5 l=15
**devattr s=58000,2116 d=58000,2116
X180 m9m10 bias1 VCC VCC sky130_fd_pr__pfet_01v8 ad=1.45 pd=10.6 as=1.45 ps=10.6 w=5 l=15
**devattr s=58000,2116 d=58000,2116
X181 m9m10 bias1 VCC VCC sky130_fd_pr__pfet_01v8 ad=1.45 pd=10.6 as=1.45 ps=10.6 w=5 l=15
**devattr s=58000,2116 d=58000,2116
X182 m9m10 bias1 VCC VCC sky130_fd_pr__pfet_01v8 ad=1.45 pd=10.6 as=1.45 ps=10.6 w=5 l=15
**devattr s=58000,2116 d=58000,2116
X183 m9m10 bias1 VCC VCC sky130_fd_pr__pfet_01v8 ad=1.45 pd=10.6 as=1.45 ps=10.6 w=5 l=15
**devattr s=58000,2116 d=58000,2116
X184 VCC bias1 m1m2 VCC sky130_fd_pr__pfet_01v8 ad=1.45 pd=10.6 as=1.45 ps=10.6 w=5 l=15
**devattr s=58000,2116 d=58000,2116
X185 dummy_9 bias1 dummy_9 VCC sky130_fd_pr__pfet_01v8 ad=1.45 pd=10.6 as=1.45 ps=10.6 w=5 l=15
**devattr d=58000,2116
X186 OUT VB_B m11m12 VSS sky130_fd_pr__nfet_01v8 ad=1.45 pd=10.6 as=1.45 ps=10.6 w=5 l=5
**devattr s=58000,2116 d=58000,2116
X187 m9m10 bias1 VCC VCC sky130_fd_pr__pfet_01v8 ad=1.45 pd=10.6 as=1.45 ps=10.6 w=5 l=15
**devattr s=58000,2116 d=58000,2116
X188 m9m10 bias1 VCC VCC sky130_fd_pr__pfet_01v8 ad=1.45 pd=10.6 as=1.45 ps=10.6 w=5 l=15
**devattr s=58000,2116 d=58000,2116
X189 VCC bias1 m1m2 VCC sky130_fd_pr__pfet_01v8 ad=1.45 pd=10.6 as=1.45 ps=10.6 w=5 l=15
**devattr s=58000,2116 d=58000,2116
X190 m9m10 bias1 VCC VCC sky130_fd_pr__pfet_01v8 ad=1.45 pd=10.6 as=1.45 ps=10.6 w=5 l=15
**devattr s=58000,2116 d=58000,2116
X191 m9m10 bias1 VCC VCC sky130_fd_pr__pfet_01v8 ad=1.45 pd=10.6 as=1.45 ps=10.6 w=5 l=15
**devattr s=58000,2116 d=58000,2116
X192 m9m10 bias1 VCC VCC sky130_fd_pr__pfet_01v8 ad=1.45 pd=10.6 as=1.45 ps=10.6 w=5 l=15
**devattr s=58000,2116 d=58000,2116
X193 m9m10 bias1 VCC VCC sky130_fd_pr__pfet_01v8 ad=1.45 pd=10.6 as=1.45 ps=10.6 w=5 l=15
**devattr s=58000,2116 d=58000,2116
X194 dummy_9 bias1 dummy_9 VCC sky130_fd_pr__pfet_01v8 ad=1.45 pd=10.6 as=1.45 ps=10.6 w=5 l=15
**devattr d=58000,2116
X195 m9m10 bias1 VCC VCC sky130_fd_pr__pfet_01v8 ad=1.45 pd=10.6 as=1.45 ps=10.6 w=5 l=15
**devattr s=58000,2116 d=58000,2116
X196 VCC bias1 m1m2 VCC sky130_fd_pr__pfet_01v8 ad=1.45 pd=10.6 as=1.45 ps=10.6 w=5 l=15
**devattr s=58000,2116 d=58000,2116
X197 VCC bias1 m1m2 VCC sky130_fd_pr__pfet_01v8 ad=1.45 pd=10.6 as=1.45 ps=10.6 w=5 l=15
**devattr s=58000,2116 d=58000,2116
X198 dummy_9 bias1 dummy_9 VCC sky130_fd_pr__pfet_01v8 ad=1.45 pd=10.6 as=1.45 ps=10.6 w=5 l=15
**devattr d=58000,2116
X199 VCC bias1 m1m2 VCC sky130_fd_pr__pfet_01v8 ad=1.45 pd=10.6 as=1.45 ps=10.6 w=5 l=15
**devattr s=58000,2116 d=58000,2116
X200 dummy_9 bias1 dummy_9 VCC sky130_fd_pr__pfet_01v8 ad=1.45 pd=10.6 as=1.45 ps=10.6 w=5 l=15
**devattr d=58000,2116
X201 m9m10 bias1 VCC VCC sky130_fd_pr__pfet_01v8 ad=1.45 pd=10.6 as=1.45 ps=10.6 w=5 l=15
**devattr s=58000,2116 d=58000,2116
X202 dummy_4 bias3 dummy_4 VSS sky130_fd_pr__nfet_01v8 ad=0.363 pd=3.08 as=0.363 ps=3.08 w=1.25 l=1
**devattr d=14500,616
X203 m9m10 bias1 VCC VCC sky130_fd_pr__pfet_01v8 ad=1.45 pd=10.6 as=1.45 ps=10.6 w=5 l=15
**devattr s=58000,2116 d=58000,2116
X204 OUT VB_A m9m10 VCC sky130_fd_pr__pfet_01v8 ad=1.45 pd=10.6 as=1.45 ps=10.6 w=5 l=5
**devattr s=58000,2116 d=58000,2116
X205 m9m10 bias1 VCC VCC sky130_fd_pr__pfet_01v8 ad=1.45 pd=10.6 as=1.45 ps=10.6 w=5 l=15
**devattr s=58000,2116 d=58000,2116
X206 dummy_9 bias1 dummy_9 VCC sky130_fd_pr__pfet_01v8 ad=1.45 pd=10.6 as=1.45 ps=10.6 w=5 l=15
**devattr d=58000,2116
X207 VCC bias1 m1m2 VCC sky130_fd_pr__pfet_01v8 ad=1.45 pd=10.6 as=1.45 ps=10.6 w=5 l=15
**devattr s=58000,2116 d=58000,2116
X208 VCC bias1 m1m2 VCC sky130_fd_pr__pfet_01v8 ad=1.45 pd=10.6 as=1.45 ps=10.6 w=5 l=15
**devattr s=58000,2116 d=58000,2116
X209 dummy_3 VB_B dummy_3 VSS sky130_fd_pr__nfet_01v8 ad=1.45 pd=10.6 as=1.45 ps=10.6 w=5 l=5
**devattr d=58000,2116
X210 m9m10 bias1 VCC VCC sky130_fd_pr__pfet_01v8 ad=1.45 pd=10.6 as=1.45 ps=10.6 w=5 l=15
**devattr s=58000,2116 d=58000,2116
X211 dummy_9 bias1 dummy_9 VCC sky130_fd_pr__pfet_01v8 ad=1.45 pd=10.6 as=1.45 ps=10.6 w=5 l=15
**devattr d=58000,2116
X212 m9m10 bias1 VCC VCC sky130_fd_pr__pfet_01v8 ad=1.45 pd=10.6 as=1.45 ps=10.6 w=5 l=15
**devattr s=58000,2116 d=58000,2116
X213 VCC bias1 m1m2 VCC sky130_fd_pr__pfet_01v8 ad=1.45 pd=10.6 as=1.45 ps=10.6 w=5 l=15
**devattr s=58000,2116 d=58000,2116
X214 m9m10 bias1 VCC VCC sky130_fd_pr__pfet_01v8 ad=1.45 pd=10.6 as=1.45 ps=10.6 w=5 l=15
**devattr s=58000,2116 d=58000,2116
X215 VCC bias1 m1m2 VCC sky130_fd_pr__pfet_01v8 ad=1.45 pd=10.6 as=1.45 ps=10.6 w=5 l=15
**devattr s=58000,2116 d=58000,2116
X216 m9m10 bias1 VCC VCC sky130_fd_pr__pfet_01v8 ad=1.45 pd=10.6 as=1.45 ps=10.6 w=5 l=15
**devattr s=58000,2116 d=58000,2116
X217 dummy_9 bias1 dummy_9 VCC sky130_fd_pr__pfet_01v8 ad=1.45 pd=10.6 as=1.45 ps=10.6 w=5 l=15
**devattr d=58000,2116
X218 m9m10 bias1 VCC VCC sky130_fd_pr__pfet_01v8 ad=1.45 pd=10.6 as=1.45 ps=10.6 w=5 l=15
**devattr s=58000,2116 d=58000,2116
X219 m9m10 bias1 VCC VCC sky130_fd_pr__pfet_01v8 ad=1.45 pd=10.6 as=1.45 ps=10.6 w=5 l=15
**devattr s=58000,2116 d=58000,2116
X220 m9m10 bias1 VCC VCC sky130_fd_pr__pfet_01v8 ad=1.45 pd=10.6 as=1.45 ps=10.6 w=5 l=15
**devattr s=58000,2116 d=58000,2116
X221 m9m10 bias1 VCC VCC sky130_fd_pr__pfet_01v8 ad=1.45 pd=10.6 as=1.45 ps=10.6 w=5 l=15
**devattr s=58000,2116 d=58000,2116
X222 VCC bias1 m1m2 VCC sky130_fd_pr__pfet_01v8 ad=1.45 pd=10.6 as=1.45 ps=10.6 w=5 l=15
**devattr s=58000,2116 d=58000,2116
X223 VCC bias1 m1m2 VCC sky130_fd_pr__pfet_01v8 ad=1.45 pd=10.6 as=1.45 ps=10.6 w=5 l=15
**devattr s=58000,2116 d=58000,2116
X224 dummy_9 bias1 dummy_9 VCC sky130_fd_pr__pfet_01v8 ad=1.45 pd=10.6 as=1.45 ps=10.6 w=5 l=15
**devattr d=58000,2116
X225 dummy_2 VB_A dummy_2 VCC sky130_fd_pr__pfet_01v8 ad=1.45 pd=10.6 as=1.45 ps=10.6 w=5 l=5
**devattr d=58000,2116
X226 m9m10 bias1 VCC VCC sky130_fd_pr__pfet_01v8 ad=1.45 pd=10.6 as=1.45 ps=10.6 w=5 l=15
**devattr s=58000,2116 d=58000,2116
X227 m9m10 bias1 VCC VCC sky130_fd_pr__pfet_01v8 ad=1.45 pd=10.6 as=1.45 ps=10.6 w=5 l=15
**devattr s=58000,2116 d=58000,2116
X228 OUT VB_A m9m10 VCC sky130_fd_pr__pfet_01v8 ad=1.45 pd=10.6 as=1.45 ps=10.6 w=5 l=5
**devattr s=58000,2116 d=58000,2116
X229 VCC bias1 m1m2 VCC sky130_fd_pr__pfet_01v8 ad=1.45 pd=10.6 as=1.45 ps=10.6 w=5 l=15
**devattr s=58000,2116 d=58000,2116
X230 m9m10 bias1 VCC VCC sky130_fd_pr__pfet_01v8 ad=1.45 pd=10.6 as=1.45 ps=10.6 w=5 l=15
**devattr s=58000,2116 d=58000,2116
X231 OUT VB_B m11m12 VSS sky130_fd_pr__nfet_01v8 ad=1.45 pd=10.6 as=1.45 ps=10.6 w=5 l=5
**devattr s=58000,2116 d=58000,2116
X232 dummy_9 bias1 dummy_9 VCC sky130_fd_pr__pfet_01v8 ad=1.45 pd=10.6 as=1.45 ps=10.6 w=5 l=15
**devattr d=58000,2116
X233 dummy_2 VB_A dummy_2 VCC sky130_fd_pr__pfet_01v8 ad=1.45 pd=10.6 as=1.45 ps=10.6 w=5 l=5
**devattr d=58000,2116
X234 OUT VB_B m11m12 VSS sky130_fd_pr__nfet_01v8 ad=1.45 pd=10.6 as=1.45 ps=10.6 w=5 l=5
**devattr s=58000,2116 d=58000,2116
X235 m9m10 bias1 VCC VCC sky130_fd_pr__pfet_01v8 ad=1.45 pd=10.6 as=1.45 ps=10.6 w=5 l=15
**devattr s=58000,2116 d=58000,2116
X236 m9m10 bias1 VCC VCC sky130_fd_pr__pfet_01v8 ad=1.45 pd=10.6 as=1.45 ps=10.6 w=5 l=15
**devattr s=58000,2116 d=58000,2116
X237 VCC bias1 m1m2 VCC sky130_fd_pr__pfet_01v8 ad=1.45 pd=10.6 as=1.45 ps=10.6 w=5 l=15
**devattr s=58000,2116 d=58000,2116
X238 m9m10 bias1 VCC VCC sky130_fd_pr__pfet_01v8 ad=1.45 pd=10.6 as=1.45 ps=10.6 w=5 l=15
**devattr s=58000,2116 d=58000,2116
X239 VCC bias1 m1m2 VCC sky130_fd_pr__pfet_01v8 ad=1.45 pd=10.6 as=1.45 ps=10.6 w=5 l=15
**devattr s=58000,2116 d=58000,2116
X240 VCC bias1 m1m2 VCC sky130_fd_pr__pfet_01v8 ad=1.45 pd=10.6 as=1.45 ps=10.6 w=5 l=15
**devattr s=58000,2116 d=58000,2116