* NGSPICE file created from opamp_cascode.ext - technology: sky130A

.subckt sky130_fd_pr__nfet_01v8_SCE452 a_n158_n125# a_n100_n213# a_100_n125# VSUBS
X0 a_100_n125# a_n100_n213# a_n158_n125# VSUBS sky130_fd_pr__nfet_01v8 ad=0.363 pd=3.08 as=0.363 ps=3.08 w=1.25 l=1
**devattr s=14500,616 d=14500,616
C0 a_n100_n213# a_100_n125# 0.0322f
C1 a_n100_n213# a_n158_n125# 0.0322f
C2 a_n158_n125# a_100_n125# 0.0693f
C3 a_100_n125# VSUBS 0.151f
C4 a_n158_n125# VSUBS 0.151f
C5 a_n100_n213# VSUBS 0.664f
.ends

.subckt sky130_fd_pr__pfet_01v8_ZLZ7XS w_n1594_n600# a_n1500_n597# a_1500_n500# a_n1558_n500#
+ VSUBS
X0 a_1500_n500# a_n1500_n597# a_n1558_n500# w_n1594_n600# sky130_fd_pr__pfet_01v8 ad=1.45 pd=10.6 as=1.45 ps=10.6 w=5 l=15
**devattr s=58000,2116 d=58000,2116
C0 a_1500_n500# w_n1594_n600# 0.0187f
C1 w_n1594_n600# a_n1558_n500# 0.0187f
C2 w_n1594_n600# a_n1500_n597# 1.65f
C3 a_1500_n500# a_n1500_n597# 0.217f
C4 a_n1500_n597# a_n1558_n500# 0.217f
C5 a_1500_n500# VSUBS 0.65f
C6 a_n1558_n500# VSUBS 0.65f
C7 a_n1500_n597# VSUBS 6.74f
C8 w_n1594_n600# VSUBS 11.5f
.ends

.subckt sky130_fd_pr__pfet_01v8_7DHACV w_n112_636# a_n33_n5541# a_n33_n8013# a_n76_736#
+ w_n112_1872# w_n112_4344# a_18_n500# a_18_n2972# a_18_n5444# a_n76_n1736# a_n33_3111#
+ a_n76_n4208# a_18_3208# a_n76_n7916# a_n33_n1833# a_18_6916# a_n76_5680# w_n112_n3072#
+ a_n33_n4305# a_n33_5583# a_n76_8152# w_n112_n6780# a_n33_8055# a_n33_n3069# a_n33_639#
+ w_n112_n9252# w_n112_3108# w_n112_6816# a_n33_n6777# a_n33_n597# a_n33_n9249# a_18_n1736#
+ a_18_n4208# a_18_n7916# a_n76_1972# a_n33_1875# w_n112_n600# a_n76_n6680# a_18_736#
+ a_n76_4444# a_18_5680# a_n33_4347# w_n112_n5544# a_n76_n9152# a_18_8152# w_n112_n8016#
+ a_n76_n500# w_n112_5580# w_n112_8052# a_18_n6680# a_n76_n2972# a_18_1972# a_n76_3208#
+ a_n76_n5444# a_18_4444# a_n76_6916# w_n112_n1836# a_18_n9152# a_n33_6819# w_n112_n4308#
+ VSUBS
X0 a_18_3208# a_n33_3111# a_n76_3208# w_n112_3108# sky130_fd_pr__pfet_01v8 ad=1.45 pd=10.6 as=1.45 ps=10.6 w=5 l=0.18
**devattr s=58000,2116 d=58000,2116
X1 a_18_n6680# a_n33_n6777# a_n76_n6680# w_n112_n6780# sky130_fd_pr__pfet_01v8 ad=1.45 pd=10.6 as=1.45 ps=10.6 w=5 l=0.18
**devattr s=58000,2116 d=58000,2116
X2 a_18_n500# a_n33_n597# a_n76_n500# w_n112_n600# sky130_fd_pr__pfet_01v8 ad=1.45 pd=10.6 as=1.45 ps=10.6 w=5 l=0.18
**devattr s=58000,2116 d=58000,2116
X3 a_18_n9152# a_n33_n9249# a_n76_n9152# w_n112_n9252# sky130_fd_pr__pfet_01v8 ad=1.45 pd=10.6 as=1.45 ps=10.6 w=5 l=0.18
**devattr s=58000,2116 d=58000,2116
X4 a_18_736# a_n33_639# a_n76_736# w_n112_636# sky130_fd_pr__pfet_01v8 ad=1.45 pd=10.6 as=1.45 ps=10.6 w=5 l=0.18
**devattr s=58000,2116 d=58000,2116
X5 a_18_n2972# a_n33_n3069# a_n76_n2972# w_n112_n3072# sky130_fd_pr__pfet_01v8 ad=1.45 pd=10.6 as=1.45 ps=10.6 w=5 l=0.18
**devattr s=58000,2116 d=58000,2116
X6 a_18_n7916# a_n33_n8013# a_n76_n7916# w_n112_n8016# sky130_fd_pr__pfet_01v8 ad=1.45 pd=10.6 as=1.45 ps=10.6 w=5 l=0.18
**devattr s=58000,2116 d=58000,2116
X7 a_18_5680# a_n33_5583# a_n76_5680# w_n112_5580# sky130_fd_pr__pfet_01v8 ad=1.45 pd=10.6 as=1.45 ps=10.6 w=5 l=0.18
**devattr s=58000,2116 d=58000,2116
X8 a_18_n5444# a_n33_n5541# a_n76_n5444# w_n112_n5544# sky130_fd_pr__pfet_01v8 ad=1.45 pd=10.6 as=1.45 ps=10.6 w=5 l=0.18
**devattr s=58000,2116 d=58000,2116
X9 a_18_8152# a_n33_8055# a_n76_8152# w_n112_8052# sky130_fd_pr__pfet_01v8 ad=1.45 pd=10.6 as=1.45 ps=10.6 w=5 l=0.18
**devattr s=58000,2116 d=58000,2116
X10 a_18_n1736# a_n33_n1833# a_n76_n1736# w_n112_n1836# sky130_fd_pr__pfet_01v8 ad=1.45 pd=10.6 as=1.45 ps=10.6 w=5 l=0.18
**devattr s=58000,2116 d=58000,2116
X11 a_18_6916# a_n33_6819# a_n76_6916# w_n112_6816# sky130_fd_pr__pfet_01v8 ad=1.45 pd=10.6 as=1.45 ps=10.6 w=5 l=0.18
**devattr s=58000,2116 d=58000,2116
X12 a_18_1972# a_n33_1875# a_n76_1972# w_n112_1872# sky130_fd_pr__pfet_01v8 ad=1.45 pd=10.6 as=1.45 ps=10.6 w=5 l=0.18
**devattr s=58000,2116 d=58000,2116
X13 a_18_n4208# a_n33_n4305# a_n76_n4208# w_n112_n4308# sky130_fd_pr__pfet_01v8 ad=1.45 pd=10.6 as=1.45 ps=10.6 w=5 l=0.18
**devattr s=58000,2116 d=58000,2116
X14 a_18_4444# a_n33_4347# a_n76_4444# w_n112_4344# sky130_fd_pr__pfet_01v8 ad=1.45 pd=10.6 as=1.45 ps=10.6 w=5 l=0.18
**devattr s=58000,2116 d=58000,2116
C0 w_n112_n8016# a_18_n9152# 0.00199f
C1 a_n33_n8013# a_18_n7916# 0.0417f
C2 w_n112_5580# a_n76_6916# 0.00199f
C3 w_n112_n9252# a_n33_n8013# 4.13e-19
C4 a_n33_5583# a_n33_6819# 0.0665f
C5 a_18_6916# a_n76_6916# 0.747f
C6 a_n33_1875# a_18_1972# 0.0417f
C7 a_18_5680# a_18_4444# 0.00947f
C8 a_n33_639# a_n76_736# 0.0417f
C9 w_n112_6816# a_n76_6916# 0.0182f
C10 w_n112_1872# a_n33_1875# 0.106f
C11 a_n33_n5541# a_n76_n5444# 0.0417f
C12 a_n76_4444# a_n33_3111# 1.15e-19
C13 a_n33_8055# a_n76_6916# 1.15e-19
C14 a_n76_8152# a_n33_6819# 1.15e-19
C15 w_n112_4344# a_18_3208# 0.00199f
C16 w_n112_3108# a_n33_1875# 4.13e-19
C17 w_n112_n6780# a_n76_n5444# 0.00199f
C18 w_n112_n5544# a_18_n5444# 0.0182f
C19 a_n76_n2972# a_18_n2972# 0.747f
C20 a_n33_1875# a_18_736# 1.15e-19
C21 w_n112_n600# a_n33_n597# 0.106f
C22 a_18_1972# a_n33_639# 1.15e-19
C23 a_n76_1972# a_n76_736# 0.00947f
C24 a_n76_3208# a_n33_4347# 1.15e-19
C25 w_n112_n5544# a_n76_n6680# 0.00199f
C26 w_n112_1872# a_n33_639# 4.13e-19
C27 w_n112_n9252# a_18_n7916# 0.00199f
C28 a_n33_n8013# a_n33_n9249# 0.0665f
C29 a_n76_n5444# a_18_n5444# 0.747f
C30 a_n33_5583# a_n76_6916# 1.15e-19
C31 a_n76_5680# a_n33_6819# 1.15e-19
C32 a_n76_1972# a_18_1972# 0.747f
C33 a_n33_639# a_18_736# 0.0417f
C34 w_n112_1872# a_n76_1972# 0.0182f
C35 a_18_4444# a_n33_3111# 1.15e-19
C36 a_n76_n5444# a_n76_n6680# 0.00947f
C37 a_n76_8152# a_n76_6916# 0.00947f
C38 a_n33_n5541# a_18_n6680# 1.15e-19
C39 a_n76_n1736# w_n112_n1836# 0.0182f
C40 a_n33_n1833# w_n112_n3072# 4.13e-19
C41 w_n112_3108# a_n76_1972# 0.00199f
C42 w_n112_n5544# a_n33_n6777# 4.13e-19
C43 w_n112_n6780# a_18_n6680# 0.0182f
C44 w_n112_n8016# a_n76_n6680# 0.00199f
C45 a_n33_n4305# w_n112_n3072# 4.13e-19
C46 w_n112_n600# a_n76_n500# 0.0182f
C47 a_18_3208# a_n33_4347# 1.15e-19
C48 a_n76_3208# a_n76_4444# 0.00947f
C49 a_18_n7916# a_n33_n9249# 1.15e-19
C50 a_n33_n8013# a_18_n9152# 1.15e-19
C51 a_n76_n7916# a_n76_n9152# 0.00947f
C52 w_n112_1872# a_n76_736# 0.00199f
C53 w_n112_n9252# a_n33_n9249# 0.106f
C54 a_n33_n1833# a_18_n1736# 0.0417f
C55 a_n76_n5444# a_n33_n6777# 1.15e-19
C56 a_18_5680# a_n33_6819# 1.15e-19
C57 a_n76_5680# a_n76_6916# 0.00947f
C58 a_18_n5444# a_18_n6680# 0.00947f
C59 a_18_n1736# w_n112_n3072# 0.00199f
C60 a_n33_639# a_n33_n597# 0.0665f
C61 a_n76_736# a_18_736# 0.747f
C62 w_n112_n8016# a_n33_n6777# 4.13e-19
C63 w_n112_1872# a_18_1972# 0.0182f
C64 a_n76_n6680# a_18_n6680# 0.747f
C65 w_n112_3108# a_18_1972# 0.00199f
C66 a_18_n4208# w_n112_n3072# 0.00199f
C67 a_n76_n4208# w_n112_n4308# 0.0182f
C68 w_n112_n6780# a_n33_n8013# 4.13e-19
C69 a_18_n7916# a_18_n9152# 0.00947f
C70 a_n33_n4305# a_18_n4208# 0.0417f
C71 w_n112_n9252# a_18_n9152# 0.0182f
C72 a_18_1972# a_18_736# 0.00947f
C73 w_n112_n600# a_18_n500# 0.0182f
C74 w_n112_1872# a_18_736# 0.00199f
C75 a_n33_n1833# a_n33_n3069# 0.0665f
C76 a_n33_n6777# a_18_n6680# 0.0417f
C77 a_n33_n3069# w_n112_n3072# 0.106f
C78 a_n76_n2972# w_n112_n1836# 0.00199f
C79 a_18_8152# a_n33_6819# 1.15e-19
C80 a_n33_639# a_n76_n500# 1.15e-19
C81 a_n76_736# a_n33_n597# 1.15e-19
C82 w_n112_n8016# a_n76_n7916# 0.0182f
C83 a_n33_n1833# a_n33_n597# 0.0665f
C84 w_n112_n6780# a_18_n7916# 0.00199f
C85 a_n33_n3069# a_n33_n4305# 0.0665f
C86 a_n76_n6680# a_n33_n8013# 1.15e-19
C87 a_n33_n9249# a_18_n9152# 0.0417f
C88 a_n33_n4305# a_n33_n5541# 0.0665f
C89 a_n76_3208# a_n33_3111# 0.0417f
C90 a_18_3208# a_18_4444# 0.00947f
C91 w_n112_n5544# a_n76_n4208# 0.00199f
C92 a_18_n1736# a_n33_n3069# 1.15e-19
C93 a_n33_n1833# a_18_n2972# 1.15e-19
C94 a_n76_n1736# a_n76_n2972# 0.00947f
C95 a_18_n2972# w_n112_n3072# 0.0182f
C96 a_n76_n2972# w_n112_n4308# 0.00199f
C97 a_18_n1736# a_n33_n597# 1.15e-19
C98 a_n33_n3069# a_18_n4208# 1.15e-19
C99 a_n76_n2972# a_n76_n4208# 0.00947f
C100 a_18_n2972# a_n33_n4305# 1.15e-19
C101 a_n33_n6777# a_n33_n8013# 0.0665f
C102 a_n76_n5444# w_n112_n4308# 0.00199f
C103 a_n76_736# a_n76_n500# 0.00947f
C104 a_18_736# a_n33_n597# 1.15e-19
C105 a_n33_639# a_18_n500# 1.15e-19
C106 a_n33_n1833# a_n76_n500# 1.15e-19
C107 a_18_6916# w_n112_8052# 0.00199f
C108 a_18_n4208# a_n33_n5541# 1.15e-19
C109 a_n33_n4305# a_18_n5444# 1.15e-19
C110 a_n76_n4208# a_n76_n5444# 0.00947f
C111 w_n112_8052# a_n33_8055# 0.106f
C112 a_n76_n1736# w_n112_n600# 0.00199f
C113 a_18_n1736# a_18_n2972# 0.00947f
C114 w_n112_636# a_n33_1875# 4.13e-19
C115 a_18_3208# a_n33_3111# 0.0417f
C116 a_18_n2972# a_18_n4208# 0.00947f
C117 a_n33_n6777# a_18_n7916# 1.15e-19
C118 a_18_6916# w_n112_5580# 0.00199f
C119 w_n112_3108# a_n33_4347# 4.13e-19
C120 w_n112_n8016# a_n76_n9152# 0.00199f
C121 a_18_6916# w_n112_6816# 0.0182f
C122 a_n33_n8013# a_n76_n7916# 0.0417f
C123 w_n112_636# a_n33_639# 0.106f
C124 a_18_n4208# a_18_n5444# 0.00947f
C125 a_18_6916# a_n33_8055# 1.15e-19
C126 a_n33_6819# a_n76_6916# 0.0417f
C127 a_n33_n1833# a_18_n500# 1.15e-19
C128 a_n33_8055# w_n112_6816# 4.13e-19
C129 w_n112_8052# a_n76_8152# 0.0182f
C130 w_n112_n5544# a_n76_n5444# 0.0182f
C131 w_n112_n6780# a_n33_n5541# 4.13e-19
C132 a_n33_n3069# a_18_n2972# 0.0417f
C133 w_n112_636# a_n76_1972# 0.00199f
C134 a_n33_1875# a_n33_3111# 0.0665f
C135 a_n33_5583# w_n112_4344# 4.13e-19
C136 a_n76_n7916# a_18_n7916# 0.747f
C137 a_n33_5583# w_n112_5580# 0.106f
C138 w_n112_4344# a_n33_4347# 0.106f
C139 a_18_6916# a_n33_5583# 1.15e-19
C140 w_n112_n9252# a_n76_n7916# 0.00199f
C141 w_n112_3108# a_n76_4444# 0.00199f
C142 a_18_n1736# a_18_n500# 0.00947f
C143 a_n76_3208# a_18_3208# 0.747f
C144 a_n33_5583# w_n112_6816# 4.13e-19
C145 w_n112_5580# a_n33_4347# 4.13e-19
C146 w_n112_636# a_n76_736# 0.0182f
C147 a_n33_n5541# a_18_n5444# 0.0417f
C148 a_n33_n597# a_n76_n500# 0.0417f
C149 a_18_736# a_18_n500# 0.00947f
C150 a_n76_8152# w_n112_6816# 0.00199f
C151 w_n112_n6780# a_18_n5444# 0.00199f
C152 a_n33_8055# a_n76_8152# 0.0417f
C153 a_n33_n5541# a_n76_n6680# 1.15e-19
C154 a_n33_n1833# w_n112_n1836# 0.106f
C155 w_n112_n6780# a_n76_n6680# 0.0182f
C156 w_n112_n5544# a_18_n6680# 0.00199f
C157 w_n112_636# a_18_1972# 0.00199f
C158 a_n76_1972# a_n33_3111# 1.15e-19
C159 a_n76_5680# w_n112_4344# 0.00199f
C160 a_n33_n8013# a_n76_n9152# 1.15e-19
C161 a_n76_n7916# a_n33_n9249# 1.15e-19
C162 a_n76_5680# w_n112_5580# 0.0182f
C163 w_n112_4344# a_n76_4444# 0.0182f
C164 w_n112_3108# a_18_4444# 0.00199f
C165 a_n76_3208# a_n33_1875# 1.15e-19
C166 a_n76_5680# w_n112_6816# 0.00199f
C167 w_n112_5580# a_n76_4444# 0.00199f
C168 a_n33_5583# a_n33_4347# 0.0665f
C169 a_n33_n1833# a_n76_n1736# 0.0417f
C170 w_n112_636# a_18_736# 0.0182f
C171 a_n33_n5541# a_n33_n6777# 0.0665f
C172 a_18_n1736# w_n112_n1836# 0.0182f
C173 a_n76_n1736# w_n112_n3072# 0.00199f
C174 a_n33_n597# a_18_n500# 0.0417f
C175 w_n112_n6780# a_n33_n6777# 0.106f
C176 w_n112_n8016# a_18_n6680# 0.00199f
C177 a_n76_n4208# w_n112_n3072# 0.00199f
C178 a_n33_n4305# w_n112_n4308# 0.106f
C179 a_18_1972# a_n33_3111# 1.15e-19
C180 a_n33_n4305# a_n76_n4208# 0.0417f
C181 w_n112_n9252# a_n76_n9152# 0.0182f
C182 a_18_5680# w_n112_4344# 0.00199f
C183 w_n112_1872# a_n33_3111# 4.13e-19
C184 a_n76_n1736# a_18_n1736# 0.747f
C185 a_18_5680# w_n112_5580# 0.0182f
C186 w_n112_4344# a_18_4444# 0.0182f
C187 a_18_n5444# a_n33_n6777# 1.15e-19
C188 a_18_6916# a_18_5680# 0.00947f
C189 a_n33_5583# a_n76_5680# 0.0417f
C190 w_n112_3108# a_n33_3111# 0.106f
C191 w_n112_5580# a_18_4444# 0.00199f
C192 a_18_3208# a_n33_1875# 1.15e-19
C193 a_n76_3208# a_n76_1972# 0.00947f
C194 a_18_5680# w_n112_6816# 0.00199f
C195 a_n33_5583# a_n76_4444# 1.15e-19
C196 a_n76_5680# a_n33_4347# 1.15e-19
C197 w_n112_636# a_n33_n597# 4.13e-19
C198 a_n33_n6777# a_n76_n6680# 0.0417f
C199 a_n76_n500# a_18_n500# 0.747f
C200 a_n33_n3069# w_n112_n1836# 4.13e-19
C201 a_n33_4347# a_n76_4444# 0.0417f
C202 a_18_n4208# w_n112_n4308# 0.0182f
C203 w_n112_n6780# a_n76_n7916# 0.00199f
C204 w_n112_n8016# a_n33_n8013# 0.106f
C205 w_n112_8052# a_18_8152# 0.0182f
C206 a_n33_n597# w_n112_n1836# 4.13e-19
C207 a_n76_n4208# a_18_n4208# 0.747f
C208 w_n112_n600# a_n33_639# 4.13e-19
C209 a_n33_n9249# a_n76_n9152# 0.0417f
C210 w_n112_n5544# a_n33_n4305# 4.13e-19
C211 a_n76_n1736# a_n33_n3069# 1.15e-19
C212 a_n33_n1833# a_n76_n2972# 1.15e-19
C213 w_n112_4344# a_n33_3111# 4.13e-19
C214 a_n33_5583# a_18_5680# 0.0417f
C215 a_n76_n2972# w_n112_n3072# 0.0182f
C216 a_18_n2972# w_n112_n1836# 0.00199f
C217 a_n33_n3069# w_n112_n4308# 4.13e-19
C218 a_18_6916# a_18_8152# 0.00947f
C219 a_n76_n1736# a_n33_n597# 1.15e-19
C220 a_18_5680# a_n33_4347# 1.15e-19
C221 a_n76_5680# a_n76_4444# 0.00947f
C222 w_n112_n8016# a_18_n7916# 0.0182f
C223 a_n33_5583# a_18_4444# 1.15e-19
C224 w_n112_636# a_n76_n500# 0.00199f
C225 w_n112_6816# a_18_8152# 0.00199f
C226 a_n76_n2972# a_n33_n4305# 1.15e-19
C227 a_n33_n3069# a_n76_n4208# 1.15e-19
C228 a_18_n6680# a_n33_n8013# 1.15e-19
C229 w_n112_1872# a_n76_3208# 0.00199f
C230 a_n76_n6680# a_n76_n7916# 0.00947f
C231 a_n33_4347# a_18_4444# 0.0417f
C232 a_n33_8055# a_18_8152# 0.0417f
C233 a_n33_n5541# w_n112_n4308# 4.13e-19
C234 w_n112_3108# a_n76_3208# 0.0182f
C235 w_n112_8052# a_n33_6819# 4.13e-19
C236 a_n76_n500# w_n112_n1836# 0.00199f
C237 a_n76_n9152# a_18_n9152# 0.747f
C238 a_n33_n4305# a_n76_n5444# 1.15e-19
C239 a_n76_n4208# a_n33_n5541# 1.15e-19
C240 w_n112_n600# a_n76_736# 0.00199f
C241 a_n33_1875# a_n33_639# 0.0665f
C242 w_n112_n5544# a_18_n4208# 0.00199f
C243 a_n33_n1833# w_n112_n600# 4.13e-19
C244 a_18_n2972# w_n112_n4308# 0.00199f
C245 a_n76_5680# a_18_5680# 0.747f
C246 a_n33_n6777# a_n76_n7916# 1.15e-19
C247 a_18_n6680# a_18_n7916# 0.00947f
C248 w_n112_5580# a_n33_6819# 4.13e-19
C249 a_18_6916# a_n33_6819# 0.0417f
C250 a_18_n5444# w_n112_n4308# 0.00199f
C251 a_18_3208# a_18_1972# 0.00947f
C252 a_n33_1875# a_n76_1972# 0.0417f
C253 a_n76_n1736# a_n76_n500# 0.00947f
C254 w_n112_n8016# a_n33_n9249# 4.13e-19
C255 w_n112_636# a_18_n500# 0.00199f
C256 w_n112_6816# a_n33_6819# 0.106f
C257 w_n112_1872# a_18_3208# 0.00199f
C258 a_n76_4444# a_18_4444# 0.747f
C259 a_n33_4347# a_n33_3111# 0.0665f
C260 a_n76_8152# a_18_8152# 0.747f
C261 a_n33_8055# a_n33_6819# 0.0665f
C262 w_n112_4344# a_n76_3208# 0.00199f
C263 w_n112_3108# a_18_3208# 0.0182f
C264 w_n112_8052# a_n76_6916# 0.00199f
C265 a_18_n1736# w_n112_n600# 0.00199f
C266 a_18_n500# w_n112_n1836# 0.00199f
C267 a_n76_1972# a_n33_639# 1.15e-19
C268 w_n112_n600# a_18_736# 0.00199f
C269 a_n33_1875# a_n76_736# 1.15e-19
C270 w_n112_n5544# a_n33_n5541# 0.106f
C271 a_n33_n3069# a_n76_n2972# 0.0417f
C272 a_18_n9152# VSUBS 0.426f
C273 a_n76_n9152# VSUBS 0.426f
C274 a_n33_n9249# VSUBS 0.192f
C275 a_18_n7916# VSUBS 0.415f
C276 a_n76_n7916# VSUBS 0.415f
C277 a_n33_n8013# VSUBS 0.156f
C278 a_18_n6680# VSUBS 0.415f
C279 a_n76_n6680# VSUBS 0.415f
C280 a_n33_n6777# VSUBS 0.156f
C281 a_18_n5444# VSUBS 0.415f
C282 a_n76_n5444# VSUBS 0.415f
C283 a_n33_n5541# VSUBS 0.156f
C284 a_18_n4208# VSUBS 0.415f
C285 a_n76_n4208# VSUBS 0.415f
C286 a_n33_n4305# VSUBS 0.156f
C287 a_18_n2972# VSUBS 0.415f
C288 a_n76_n2972# VSUBS 0.415f
C289 a_n33_n3069# VSUBS 0.156f
C290 a_18_n1736# VSUBS 0.415f
C291 a_n76_n1736# VSUBS 0.415f
C292 a_n33_n1833# VSUBS 0.156f
C293 a_18_n500# VSUBS 0.415f
C294 a_n76_n500# VSUBS 0.415f
C295 a_n33_n597# VSUBS 0.156f
C296 a_18_736# VSUBS 0.415f
C297 a_n76_736# VSUBS 0.415f
C298 a_n33_639# VSUBS 0.156f
C299 a_18_1972# VSUBS 0.415f
C300 a_n76_1972# VSUBS 0.415f
C301 a_n33_1875# VSUBS 0.156f
C302 a_18_3208# VSUBS 0.415f
C303 a_n76_3208# VSUBS 0.415f
C304 a_n33_3111# VSUBS 0.156f
C305 a_18_4444# VSUBS 0.415f
C306 a_n76_4444# VSUBS 0.415f
C307 a_n33_4347# VSUBS 0.156f
C308 a_18_5680# VSUBS 0.415f
C309 a_n76_5680# VSUBS 0.415f
C310 a_n33_5583# VSUBS 0.156f
C311 a_18_6916# VSUBS 0.415f
C312 a_n76_6916# VSUBS 0.415f
C313 a_n33_6819# VSUBS 0.156f
C314 a_18_8152# VSUBS 0.426f
C315 a_n76_8152# VSUBS 0.426f
C316 a_n33_8055# VSUBS 0.192f
C317 w_n112_n9252# VSUBS 0.806f
C318 w_n112_n8016# VSUBS 0.806f
C319 w_n112_n6780# VSUBS 0.806f
C320 w_n112_n5544# VSUBS 0.806f
C321 w_n112_n4308# VSUBS 0.806f
C322 w_n112_n3072# VSUBS 0.806f
C323 w_n112_n1836# VSUBS 0.806f
C324 w_n112_n600# VSUBS 0.806f
C325 w_n112_636# VSUBS 0.806f
C326 w_n112_1872# VSUBS 0.806f
C327 w_n112_3108# VSUBS 0.806f
C328 w_n112_4344# VSUBS 0.806f
C329 w_n112_5580# VSUBS 0.806f
C330 w_n112_6816# VSUBS 0.806f
C331 w_n112_8052# VSUBS 0.806f
.ends

.subckt sky130_fd_pr__nfet_01v8_MHE452 a_n158_n359# a_n100_957# a_100_n1295# a_n158_577#
+ a_n100_21# a_100_109# a_n100_n915# a_100_n827# a_n100_489# a_100_1045# a_n158_n1295#
+ a_n158_n827# a_100_577# a_n158_1045# a_n100_n447# a_n158_109# a_100_n359# a_n100_n1383#
+ VSUBS
X0 a_100_n827# a_n100_n915# a_n158_n827# VSUBS sky130_fd_pr__nfet_01v8 ad=0.363 pd=3.08 as=0.363 ps=3.08 w=1.25 l=1
**devattr s=14500,616 d=14500,616
X1 a_100_n359# a_n100_n447# a_n158_n359# VSUBS sky130_fd_pr__nfet_01v8 ad=0.363 pd=3.08 as=0.363 ps=3.08 w=1.25 l=1
**devattr s=14500,616 d=14500,616
X2 a_100_577# a_n100_489# a_n158_577# VSUBS sky130_fd_pr__nfet_01v8 ad=0.363 pd=3.08 as=0.363 ps=3.08 w=1.25 l=1
**devattr s=14500,616 d=14500,616
X3 a_100_1045# a_n100_957# a_n158_1045# VSUBS sky130_fd_pr__nfet_01v8 ad=0.363 pd=3.08 as=0.363 ps=3.08 w=1.25 l=1
**devattr s=14500,616 d=14500,616
X4 a_100_n1295# a_n100_n1383# a_n158_n1295# VSUBS sky130_fd_pr__nfet_01v8 ad=0.363 pd=3.08 as=0.363 ps=3.08 w=1.25 l=1
**devattr s=14500,616 d=14500,616
X5 a_100_109# a_n100_21# a_n158_109# VSUBS sky130_fd_pr__nfet_01v8 ad=0.363 pd=3.08 as=0.363 ps=3.08 w=1.25 l=1
**devattr s=14500,616 d=14500,616
C0 a_n100_n1383# a_100_n1295# 0.0322f
C1 a_n100_957# a_100_1045# 0.0322f
C2 a_n158_n359# a_n100_n447# 0.0322f
C3 a_n100_957# a_n100_489# 0.205f
C4 a_n100_n915# a_n158_n827# 0.0322f
C5 a_n158_1045# a_n158_577# 0.0113f
C6 a_100_109# a_100_n359# 0.0113f
C7 a_100_1045# a_100_577# 0.0113f
C8 a_n158_n1295# a_n158_n827# 0.0113f
C9 a_n158_109# a_n158_577# 0.0113f
C10 a_n100_n447# a_100_n359# 0.0322f
C11 a_n100_489# a_100_577# 0.0322f
C12 a_n158_n359# a_n158_109# 0.0113f
C13 a_100_n1295# a_n158_n1295# 0.0693f
C14 a_n100_n915# a_n100_n447# 0.205f
C15 a_100_109# a_100_577# 0.0113f
C16 a_n100_957# a_n158_1045# 0.0322f
C17 a_n100_21# a_n100_489# 0.205f
C18 a_n158_1045# a_100_1045# 0.0693f
C19 a_100_109# a_n100_21# 0.0322f
C20 a_n100_n447# a_n100_21# 0.205f
C21 a_100_n827# a_100_n359# 0.0113f
C22 a_n158_n359# a_100_n359# 0.0693f
C23 a_n100_n915# a_100_n827# 0.0322f
C24 a_n100_489# a_n158_577# 0.0322f
C25 a_100_n827# a_n158_n827# 0.0693f
C26 a_n158_n359# a_n158_n827# 0.0113f
C27 a_100_109# a_n158_109# 0.0693f
C28 a_n100_n915# a_n100_n1383# 0.205f
C29 a_n158_577# a_100_577# 0.0693f
C30 a_100_n827# a_100_n1295# 0.0113f
C31 a_n158_109# a_n100_21# 0.0322f
C32 a_n100_n1383# a_n158_n1295# 0.0322f
C33 a_100_n1295# VSUBS 0.14f
C34 a_n158_n1295# VSUBS 0.14f
C35 a_n100_n1383# VSUBS 0.553f
C36 a_100_n827# VSUBS 0.13f
C37 a_n158_n827# VSUBS 0.13f
C38 a_n100_n915# VSUBS 0.441f
C39 a_100_n359# VSUBS 0.13f
C40 a_n158_n359# VSUBS 0.13f
C41 a_n100_n447# VSUBS 0.441f
C42 a_100_109# VSUBS 0.13f
C43 a_n158_109# VSUBS 0.13f
C44 a_n100_21# VSUBS 0.441f
C45 a_100_577# VSUBS 0.13f
C46 a_n158_577# VSUBS 0.13f
C47 a_n100_489# VSUBS 0.441f
C48 a_100_1045# VSUBS 0.14f
C49 a_n158_1045# VSUBS 0.14f
C50 a_n100_957# VSUBS 0.553f
.ends

.subckt sky130_fd_pr__pfet_01v8_P2UXFR a_n300_n1215# w_n394_n1218# a_n358_n1118# a_n300_21#
+ a_300_118# w_n394_18# a_300_n1118# a_n358_118# VSUBS
X0 a_300_118# a_n300_21# a_n358_118# w_n394_18# sky130_fd_pr__pfet_01v8 ad=1.45 pd=10.6 as=1.45 ps=10.6 w=5 l=3
**devattr s=58000,2116 d=58000,2116
X1 a_300_n1118# a_n300_n1215# a_n358_n1118# w_n394_n1218# sky130_fd_pr__pfet_01v8 ad=1.45 pd=10.6 as=1.45 ps=10.6 w=5 l=3
**devattr s=58000,2116 d=58000,2116
C0 a_n300_21# a_300_118# 0.184f
C1 w_n394_18# a_n358_n1118# 0.0023f
C2 w_n394_n1218# a_300_n1118# 0.0187f
C3 a_n358_118# a_n358_n1118# 0.0105f
C4 a_n358_118# w_n394_18# 0.0187f
C5 w_n394_n1218# a_n300_n1215# 0.382f
C6 a_300_118# w_n394_18# 0.0187f
C7 a_n358_n1118# a_300_n1118# 0.107f
C8 a_n300_21# a_n300_n1215# 0.62f
C9 a_300_118# a_n358_118# 0.107f
C10 w_n394_18# a_300_n1118# 0.0023f
C11 a_n358_n1118# a_n300_n1215# 0.184f
C12 a_n300_21# w_n394_n1218# 0.00346f
C13 a_300_118# a_300_n1118# 0.0105f
C14 w_n394_18# a_n300_n1215# 0.00346f
C15 w_n394_n1218# a_n358_n1118# 0.0187f
C16 a_n300_21# w_n394_18# 0.382f
C17 a_n300_n1215# a_300_n1118# 0.184f
C18 w_n394_n1218# a_n358_118# 0.0023f
C19 w_n394_n1218# a_300_118# 0.0023f
C20 a_n300_21# a_n358_118# 0.184f
C21 a_300_n1118# VSUBS 0.536f
C22 a_n358_n1118# VSUBS 0.536f
C23 a_n300_n1215# VSUBS 1.08f
C24 a_300_118# VSUBS 0.536f
C25 a_n358_118# VSUBS 0.536f
C26 a_n300_21# VSUBS 1.08f
C27 w_n394_n1218# VSUBS 2.84f
C28 w_n394_18# VSUBS 2.84f
.ends

.subckt sky130_fd_pr__pfet_01v8_MGA63L a_18_n500# a_n33_n597# w_n112_n600# a_n76_n500#
+ VSUBS
X0 a_18_n500# a_n33_n597# a_n76_n500# w_n112_n600# sky130_fd_pr__pfet_01v8 ad=1.45 pd=10.6 as=1.45 ps=10.6 w=5 l=0.18
**devattr s=58000,2116 d=58000,2116
C0 a_18_n500# w_n112_n600# 0.0182f
C1 w_n112_n600# a_n33_n597# 0.106f
C2 w_n112_n600# a_n76_n500# 0.0182f
C3 a_18_n500# a_n33_n597# 0.0417f
C4 a_18_n500# a_n76_n500# 0.747f
C5 a_n76_n500# a_n33_n597# 0.0417f
C6 a_18_n500# VSUBS 0.437f
C7 a_n76_n500# VSUBS 0.437f
C8 a_n33_n597# VSUBS 0.228f
C9 w_n112_n600# VSUBS 0.806f
.ends

.subckt sky130_fd_pr__nfet_01v8_VT3ZQW a_n158_n125# a_n100_n213# a_100_n125# VSUBS
X0 a_100_n125# a_n100_n213# a_n158_n125# VSUBS sky130_fd_pr__nfet_01v8 ad=0.363 pd=3.08 as=0.363 ps=3.08 w=1.25 l=1
**devattr s=14500,616 d=14500,616
C0 a_n100_n213# a_n158_n125# 0.0322f
C1 a_n100_n213# a_100_n125# 0.0322f
C2 a_100_n125# a_n158_n125# 0.0693f
C3 a_100_n125# VSUBS 0.151f
C4 a_n158_n125# VSUBS 0.151f
C5 a_n100_n213# VSUBS 0.664f
.ends

.subckt sky130_fd_pr__pfet_01v8_RRUZAE a_n358_n2972# a_n300_n1833# a_n300_n3069# w_n394_n1836#
+ w_n394_1872# a_n358_n1736# a_300_736# a_300_1972# a_300_n2972# w_n394_636# w_n394_n3072#
+ a_n300_n597# a_300_n500# a_n300_639# a_n358_1972# a_n300_1875# w_n394_n600# a_300_n1736#
+ a_n358_n500# a_n358_736# VSUBS
X0 a_300_n500# a_n300_n597# a_n358_n500# w_n394_n600# sky130_fd_pr__pfet_01v8 ad=1.45 pd=10.6 as=1.45 ps=10.6 w=5 l=3
**devattr s=58000,2116 d=58000,2116
X1 a_300_736# a_n300_639# a_n358_736# w_n394_636# sky130_fd_pr__pfet_01v8 ad=1.45 pd=10.6 as=1.45 ps=10.6 w=5 l=3
**devattr s=58000,2116 d=58000,2116
X2 a_300_n2972# a_n300_n3069# a_n358_n2972# w_n394_n3072# sky130_fd_pr__pfet_01v8 ad=1.45 pd=10.6 as=1.45 ps=10.6 w=5 l=3
**devattr s=58000,2116 d=58000,2116
X3 a_300_1972# a_n300_1875# a_n358_1972# w_n394_1872# sky130_fd_pr__pfet_01v8 ad=1.45 pd=10.6 as=1.45 ps=10.6 w=5 l=3
**devattr s=58000,2116 d=58000,2116
X4 a_300_n1736# a_n300_n1833# a_n358_n1736# w_n394_n1836# sky130_fd_pr__pfet_01v8 ad=1.45 pd=10.6 as=1.45 ps=10.6 w=5 l=3
**devattr s=58000,2116 d=58000,2116
C0 a_n300_n1833# w_n394_n600# 0.00346f
C1 a_300_1972# w_n394_1872# 0.0187f
C2 a_n300_639# w_n394_1872# 0.00346f
C3 a_n358_736# w_n394_636# 0.0187f
C4 a_n300_1875# w_n394_636# 0.00346f
C5 a_300_736# w_n394_636# 0.0187f
C6 a_300_n2972# a_n300_n3069# 0.184f
C7 a_n358_n2972# a_300_n2972# 0.107f
C8 a_300_n500# a_n358_n500# 0.107f
C9 a_n300_n597# a_300_n500# 0.184f
C10 w_n394_n1836# a_300_n1736# 0.0187f
C11 a_n358_1972# w_n394_1872# 0.0187f
C12 a_n358_n2972# a_n300_n3069# 0.184f
C13 w_n394_n1836# a_300_n500# 0.0023f
C14 a_n300_n597# a_n300_639# 0.62f
C15 w_n394_n1836# a_300_n2972# 0.0023f
C16 a_300_1972# a_n358_1972# 0.107f
C17 a_300_n1736# w_n394_n3072# 0.0023f
C18 a_n358_n1736# a_300_n1736# 0.107f
C19 a_n300_n597# a_n358_n500# 0.184f
C20 w_n394_n1836# a_n300_n3069# 0.00346f
C21 a_300_n1736# a_n300_n1833# 0.184f
C22 w_n394_n1836# a_n358_n2972# 0.0023f
C23 a_n358_736# w_n394_n600# 0.0023f
C24 w_n394_636# a_300_n500# 0.0023f
C25 a_300_n2972# w_n394_n3072# 0.0187f
C26 w_n394_n1836# a_n358_n500# 0.0023f
C27 a_300_736# w_n394_n600# 0.0023f
C28 w_n394_n1836# a_n300_n597# 0.00346f
C29 a_300_1972# w_n394_636# 0.0023f
C30 a_n300_639# w_n394_636# 0.382f
C31 a_n300_n3069# w_n394_n3072# 0.382f
C32 a_n358_n2972# w_n394_n3072# 0.0187f
C33 a_n358_n1736# a_n358_n2972# 0.0105f
C34 a_n300_n3069# a_n300_n1833# 0.62f
C35 w_n394_636# a_n358_n500# 0.0023f
C36 a_300_736# a_n358_736# 0.107f
C37 a_n300_n597# w_n394_636# 0.00346f
C38 a_n358_n1736# a_n358_n500# 0.0105f
C39 a_300_n1736# w_n394_n600# 0.0023f
C40 a_n358_1972# w_n394_636# 0.0023f
C41 a_n300_n597# a_n300_n1833# 0.62f
C42 w_n394_n600# a_300_n500# 0.0187f
C43 a_n358_n1736# w_n394_n1836# 0.0187f
C44 w_n394_n1836# a_n300_n1833# 0.382f
C45 a_n300_639# w_n394_n600# 0.00346f
C46 a_n358_736# w_n394_1872# 0.0023f
C47 a_n300_1875# w_n394_1872# 0.382f
C48 a_n358_n1736# w_n394_n3072# 0.0023f
C49 w_n394_n3072# a_n300_n1833# 0.00346f
C50 a_300_736# w_n394_1872# 0.0023f
C51 w_n394_n600# a_n358_n500# 0.0187f
C52 a_n358_n1736# a_n300_n1833# 0.184f
C53 a_300_736# a_300_n500# 0.0105f
C54 a_n300_n597# w_n394_n600# 0.382f
C55 a_300_1972# a_n300_1875# 0.184f
C56 a_n358_736# a_n300_639# 0.184f
C57 a_n300_1875# a_n300_639# 0.62f
C58 a_300_1972# a_300_736# 0.0105f
C59 a_300_736# a_n300_639# 0.184f
C60 a_n358_736# a_n358_n500# 0.0105f
C61 a_300_n1736# a_300_n500# 0.0105f
C62 a_n358_736# a_n358_1972# 0.0105f
C63 a_n358_1972# a_n300_1875# 0.184f
C64 a_300_n1736# a_300_n2972# 0.0105f
C65 a_n358_n1736# w_n394_n600# 0.0023f
C66 a_300_n2972# VSUBS 0.536f
C67 a_n358_n2972# VSUBS 0.536f
C68 a_n300_n3069# VSUBS 1.08f
C69 a_300_n1736# VSUBS 0.524f
C70 a_n358_n1736# VSUBS 0.524f
C71 a_n300_n1833# VSUBS 0.739f
C72 a_300_n500# VSUBS 0.524f
C73 a_n358_n500# VSUBS 0.524f
C74 a_n300_n597# VSUBS 0.739f
C75 a_300_736# VSUBS 0.524f
C76 a_n358_736# VSUBS 0.524f
C77 a_n300_639# VSUBS 0.739f
C78 a_300_1972# VSUBS 0.536f
C79 a_n358_1972# VSUBS 0.536f
C80 a_n300_1875# VSUBS 1.08f
C81 w_n394_n3072# VSUBS 2.84f
C82 w_n394_n1836# VSUBS 2.84f
C83 w_n394_n600# VSUBS 2.84f
C84 w_n394_636# VSUBS 2.84f
C85 w_n394_1872# VSUBS 2.84f
.ends

.subckt sky130_fd_pr__pfet_01v8_8DHNHY w_n112_636# a_n33_n5541# a_n33_n8013# a_n76_736#
+ a_n33_9291# w_n112_1872# a_18_9388# w_n112_4344# a_18_n500# a_18_n2972# a_18_n5444#
+ a_n76_n1736# a_n33_3111# a_n76_n4208# a_18_3208# w_n112_9288# a_n76_n7916# a_n33_n1833#
+ a_18_6916# a_n76_5680# w_n112_n3072# a_n76_n10388# a_n33_n4305# a_n33_5583# a_n76_8152#
+ w_n112_n6780# a_n33_8055# a_n33_n3069# a_n33_639# w_n112_n9252# w_n112_3108# a_18_n10388#
+ w_n112_6816# a_n33_n6777# a_n33_n597# w_n112_n10488# a_n33_n9249# a_18_n1736# a_18_n4208#
+ a_18_n7916# a_n76_1972# a_n33_1875# w_n112_n600# a_n76_n6680# a_18_736# a_n76_4444#
+ a_18_5680# a_n33_4347# w_n112_n5544# a_n76_n9152# a_18_8152# w_n112_n8016# a_n76_n500#
+ a_n76_9388# w_n112_5580# w_n112_8052# a_18_n6680# a_n76_n2972# a_18_1972# a_n76_3208#
+ a_n76_n5444# a_18_4444# a_n76_6916# w_n112_n1836# a_n33_n10485# a_18_n9152# a_n33_6819#
+ w_n112_n4308# VSUBS
X0 a_18_3208# a_n33_3111# a_n76_3208# w_n112_3108# sky130_fd_pr__pfet_01v8 ad=1.45 pd=10.6 as=1.45 ps=10.6 w=5 l=0.18
**devattr s=58000,2116 d=58000,2116
X1 a_18_n6680# a_n33_n6777# a_n76_n6680# w_n112_n6780# sky130_fd_pr__pfet_01v8 ad=1.45 pd=10.6 as=1.45 ps=10.6 w=5 l=0.18
**devattr s=58000,2116 d=58000,2116
X2 a_18_9388# a_n33_9291# a_n76_9388# w_n112_9288# sky130_fd_pr__pfet_01v8 ad=1.45 pd=10.6 as=1.45 ps=10.6 w=5 l=0.18
**devattr s=58000,2116 d=58000,2116
X3 a_18_n500# a_n33_n597# a_n76_n500# w_n112_n600# sky130_fd_pr__pfet_01v8 ad=1.45 pd=10.6 as=1.45 ps=10.6 w=5 l=0.18
**devattr s=58000,2116 d=58000,2116
X4 a_18_n9152# a_n33_n9249# a_n76_n9152# w_n112_n9252# sky130_fd_pr__pfet_01v8 ad=1.45 pd=10.6 as=1.45 ps=10.6 w=5 l=0.18
**devattr s=58000,2116 d=58000,2116
X5 a_18_736# a_n33_639# a_n76_736# w_n112_636# sky130_fd_pr__pfet_01v8 ad=1.45 pd=10.6 as=1.45 ps=10.6 w=5 l=0.18
**devattr s=58000,2116 d=58000,2116
X6 a_18_n2972# a_n33_n3069# a_n76_n2972# w_n112_n3072# sky130_fd_pr__pfet_01v8 ad=1.45 pd=10.6 as=1.45 ps=10.6 w=5 l=0.18
**devattr s=58000,2116 d=58000,2116
X7 a_18_n7916# a_n33_n8013# a_n76_n7916# w_n112_n8016# sky130_fd_pr__pfet_01v8 ad=1.45 pd=10.6 as=1.45 ps=10.6 w=5 l=0.18
**devattr s=58000,2116 d=58000,2116
X8 a_18_5680# a_n33_5583# a_n76_5680# w_n112_5580# sky130_fd_pr__pfet_01v8 ad=1.45 pd=10.6 as=1.45 ps=10.6 w=5 l=0.18
**devattr s=58000,2116 d=58000,2116
X9 a_18_n5444# a_n33_n5541# a_n76_n5444# w_n112_n5544# sky130_fd_pr__pfet_01v8 ad=1.45 pd=10.6 as=1.45 ps=10.6 w=5 l=0.18
**devattr s=58000,2116 d=58000,2116
X10 a_18_8152# a_n33_8055# a_n76_8152# w_n112_8052# sky130_fd_pr__pfet_01v8 ad=1.45 pd=10.6 as=1.45 ps=10.6 w=5 l=0.18
**devattr s=58000,2116 d=58000,2116
X11 a_18_n1736# a_n33_n1833# a_n76_n1736# w_n112_n1836# sky130_fd_pr__pfet_01v8 ad=1.45 pd=10.6 as=1.45 ps=10.6 w=5 l=0.18
**devattr s=58000,2116 d=58000,2116
X12 a_18_6916# a_n33_6819# a_n76_6916# w_n112_6816# sky130_fd_pr__pfet_01v8 ad=1.45 pd=10.6 as=1.45 ps=10.6 w=5 l=0.18
**devattr s=58000,2116 d=58000,2116
X13 a_18_1972# a_n33_1875# a_n76_1972# w_n112_1872# sky130_fd_pr__pfet_01v8 ad=1.45 pd=10.6 as=1.45 ps=10.6 w=5 l=0.18
**devattr s=58000,2116 d=58000,2116
X14 a_18_n4208# a_n33_n4305# a_n76_n4208# w_n112_n4308# sky130_fd_pr__pfet_01v8 ad=1.45 pd=10.6 as=1.45 ps=10.6 w=5 l=0.18
**devattr s=58000,2116 d=58000,2116
X15 a_18_4444# a_n33_4347# a_n76_4444# w_n112_4344# sky130_fd_pr__pfet_01v8 ad=1.45 pd=10.6 as=1.45 ps=10.6 w=5 l=0.18
**devattr s=58000,2116 d=58000,2116
X16 a_18_n10388# a_n33_n10485# a_n76_n10388# w_n112_n10488# sky130_fd_pr__pfet_01v8 ad=1.45 pd=10.6 as=1.45 ps=10.6 w=5 l=0.18
**devattr s=58000,2116 d=58000,2116
C0 a_18_1972# w_n112_1872# 0.0182f
C1 a_n33_n9249# a_n33_n10485# 0.0665f
C2 a_n33_639# a_18_n500# 1.15e-19
C3 a_n33_8055# a_n76_9388# 1.15e-19
C4 a_18_n7916# w_n112_n6780# 0.00199f
C5 w_n112_9288# a_n76_9388# 0.0182f
C6 w_n112_n6780# a_n76_n5444# 0.00199f
C7 a_n33_5583# a_n76_5680# 0.0417f
C8 a_18_n10388# w_n112_n10488# 0.0182f
C9 a_18_n6680# a_n33_n6777# 0.0417f
C10 w_n112_n1836# a_18_n500# 0.00199f
C11 a_n33_n1833# a_18_n500# 1.15e-19
C12 a_n76_4444# w_n112_5580# 0.00199f
C13 a_18_n9152# a_18_n10388# 0.00947f
C14 a_n76_4444# w_n112_4344# 0.0182f