* NGSPICE file created from opamp_cascode.ext - technology: sky130A

.subckt sky130_fd_pr__nfet_01v8_SCE452 a_n158_n125# a_n100_n213# a_100_n125# VSUBS
X0 a_100_n125# a_n100_n213# a_n158_n125# VSUBS sky130_fd_pr__nfet_01v8 ad=0.363 pd=3.08 as=0.363 ps=3.08 w=1.25 l=1
**devattr s=14500,616 d=14500,616
C0 a_n100_n213# a_100_n125# 0.0322f
C1 a_n100_n213# a_n158_n125# 0.0322f
C2 a_n158_n125# a_100_n125# 0.0693f
C3 a_100_n125# VSUBS 0.151f
C4 a_n158_n125# VSUBS 0.151f
C5 a_n100_n213# VSUBS 0.664f
.ends

.subckt sky130_fd_pr__pfet_01v8_ZLZ7XS w_n1594_n600# a_n1500_n597# a_1500_n500# a_n1558_n500#
+ VSUBS
X0 a_1500_n500# a_n1500_n597# a_n1558_n500# w_n1594_n600# sky130_fd_pr__pfet_01v8 ad=1.45 pd=10.6 as=1.45 ps=10.6 w=5 l=15
**devattr s=58000,2116 d=58000,2116
C0 w_n1594_n600# a_n1558_n500# 0.0187f
C1 w_n1594_n600# a_n1500_n597# 1.65f
C2 a_n1500_n597# a_n1558_n500# 0.217f
C3 w_n1594_n600# a_1500_n500# 0.0187f
C4 a_n1500_n597# a_1500_n500# 0.217f
C5 a_1500_n500# VSUBS 0.65f
C6 a_n1558_n500# VSUBS 0.65f
C7 a_n1500_n597# VSUBS 6.74f
C8 w_n1594_n600# VSUBS 11.5f
.ends

.subckt sky130_fd_pr__pfet_01v8_7DHACV w_n112_636# a_n33_n5541# a_n33_n8013# a_n76_736#
+ w_n112_1872# w_n112_4344# a_18_n500# a_18_n2972# a_18_n5444# a_n76_n1736# a_n33_3111#
+ a_n76_n4208# a_18_3208# a_n76_n7916# a_n33_n1833# a_18_6916# a_n76_5680# w_n112_n3072#
+ a_n33_n4305# a_n33_5583# a_n76_8152# w_n112_n6780# a_n33_8055# a_n33_n3069# a_n33_639#
+ w_n112_n9252# w_n112_3108# w_n112_6816# a_n33_n6777# a_n33_n597# a_n33_n9249# a_18_n1736#
+ a_18_n4208# a_18_n7916# a_n76_1972# a_n33_1875# w_n112_n600# a_n76_n6680# a_18_736#
+ a_n76_4444# a_18_5680# a_n33_4347# w_n112_n5544# a_n76_n9152# a_18_8152# w_n112_n8016#
+ a_n76_n500# w_n112_5580# w_n112_8052# a_18_n6680# a_n76_n2972# a_18_1972# a_n76_3208#
+ a_n76_n5444# a_18_4444# a_n76_6916# w_n112_n1836# a_18_n9152# a_n33_6819# w_n112_n4308#
+ VSUBS
X0 a_18_3208# a_n33_3111# a_n76_3208# w_n112_3108# sky130_fd_pr__pfet_01v8 ad=1.45 pd=10.6 as=1.45 ps=10.6 w=5 l=0.18
**devattr s=58000,2116 d=58000,2116
X1 a_18_n6680# a_n33_n6777# a_n76_n6680# w_n112_n6780# sky130_fd_pr__pfet_01v8 ad=1.45 pd=10.6 as=1.45 ps=10.6 w=5 l=0.18
**devattr s=58000,2116 d=58000,2116
X2 a_18_n500# a_n33_n597# a_n76_n500# w_n112_n600# sky130_fd_pr__pfet_01v8 ad=1.45 pd=10.6 as=1.45 ps=10.6 w=5 l=0.18
**devattr s=58000,2116 d=58000,2116
X3 a_18_n9152# a_n33_n9249# a_n76_n9152# w_n112_n9252# sky130_fd_pr__pfet_01v8 ad=1.45 pd=10.6 as=1.45 ps=10.6 w=5 l=0.18
**devattr s=58000,2116 d=58000,2116
X4 a_18_736# a_n33_639# a_n76_736# w_n112_636# sky130_fd_pr__pfet_01v8 ad=1.45 pd=10.6 as=1.45 ps=10.6 w=5 l=0.18
**devattr s=58000,2116 d=58000,2116
X5 a_18_n2972# a_n33_n3069# a_n76_n2972# w_n112_n3072# sky130_fd_pr__pfet_01v8 ad=1.45 pd=10.6 as=1.45 ps=10.6 w=5 l=0.18
**devattr s=58000,2116 d=58000,2116
X6 a_18_n7916# a_n33_n8013# a_n76_n7916# w_n112_n8016# sky130_fd_pr__pfet_01v8 ad=1.45 pd=10.6 as=1.45 ps=10.6 w=5 l=0.18
**devattr s=58000,2116 d=58000,2116
X7 a_18_5680# a_n33_5583# a_n76_5680# w_n112_5580# sky130_fd_pr__pfet_01v8 ad=1.45 pd=10.6 as=1.45 ps=10.6 w=5 l=0.18
**devattr s=58000,2116 d=58000,2116
X8 a_18_n5444# a_n33_n5541# a_n76_n5444# w_n112_n5544# sky130_fd_pr__pfet_01v8 ad=1.45 pd=10.6 as=1.45 ps=10.6 w=5 l=0.18
**devattr s=58000,2116 d=58000,2116
X9 a_18_8152# a_n33_8055# a_n76_8152# w_n112_8052# sky130_fd_pr__pfet_01v8 ad=1.45 pd=10.6 as=1.45 ps=10.6 w=5 l=0.18
**devattr s=58000,2116 d=58000,2116
X10 a_18_n1736# a_n33_n1833# a_n76_n1736# w_n112_n1836# sky130_fd_pr__pfet_01v8 ad=1.45 pd=10.6 as=1.45 ps=10.6 w=5 l=0.18
**devattr s=58000,2116 d=58000,2116
X11 a_18_6916# a_n33_6819# a_n76_6916# w_n112_6816# sky130_fd_pr__pfet_01v8 ad=1.45 pd=10.6 as=1.45 ps=10.6 w=5 l=0.18
**devattr s=58000,2116 d=58000,2116
X12 a_18_1972# a_n33_1875# a_n76_1972# w_n112_1872# sky130_fd_pr__pfet_01v8 ad=1.45 pd=10.6 as=1.45 ps=10.6 w=5 l=0.18
**devattr s=58000,2116 d=58000,2116
X13 a_18_n4208# a_n33_n4305# a_n76_n4208# w_n112_n4308# sky130_fd_pr__pfet_01v8 ad=1.45 pd=10.6 as=1.45 ps=10.6 w=5 l=0.18
**devattr s=58000,2116 d=58000,2116
X14 a_18_4444# a_n33_4347# a_n76_4444# w_n112_4344# sky130_fd_pr__pfet_01v8 ad=1.45 pd=10.6 as=1.45 ps=10.6 w=5 l=0.18
**devattr s=58000,2116 d=58000,2116
C0 a_n33_6819# a_n33_8055# 0.0665f
C1 w_n112_1872# a_18_736# 0.00199f
C2 w_n112_n6780# a_n76_n7916# 0.00199f
C3 a_n33_n9249# a_n76_n7916# 1.15e-19
C4 a_n76_n9152# a_n33_n8013# 1.15e-19
C5 a_n76_n9152# a_18_n9152# 0.747f
C6 w_n112_5580# a_n76_5680# 0.0182f
C7 a_n76_n1736# a_n33_n3069# 1.15e-19
C8 a_n33_n1833# a_n76_n2972# 1.15e-19
C9 a_18_3208# w_n112_4344# 0.00199f
C10 a_n76_5680# a_18_5680# 0.747f
C11 w_n112_6816# a_n76_5680# 0.00199f
C12 a_n33_n4305# a_n76_n4208# 0.0417f
C13 w_n112_n1836# a_18_n2972# 0.00199f
C14 a_n33_6819# a_n76_6916# 0.0417f
C15 a_18_8152# a_18_6916# 0.00947f
C16 a_n33_n1833# a_18_n500# 1.15e-19
C17 a_n76_n6680# a_n33_n5541# 1.15e-19
C18 a_n33_n6777# a_n76_n5444# 1.15e-19
C19 a_18_3208# a_n33_1875# 1.15e-19
C20 a_n33_639# a_n33_n597# 0.0665f
C21 a_18_3208# a_n33_4347# 1.15e-19
C22 a_n33_n3069# a_n33_n4305# 0.0665f
C23 w_n112_n1836# a_n76_n1736# 0.0182f
C24 w_n112_n3072# a_n33_n1833# 4.13e-19
C25 w_n112_n5544# a_n33_n5541# 0.106f
C26 a_n33_n8013# a_n76_n7916# 0.0417f
C27 w_n112_636# a_n33_n597# 4.13e-19
C28 a_n33_639# w_n112_n600# 4.13e-19
C29 w_n112_n1836# a_n33_n597# 4.13e-19
C30 w_n112_5580# a_18_5680# 0.0182f
C31 a_n76_n4208# a_18_n4208# 0.747f
C32 a_n33_4347# w_n112_4344# 0.106f
C33 w_n112_6816# a_18_5680# 0.00199f
C34 a_18_n1736# a_18_n500# 0.00947f
C35 a_18_n5444# a_n33_n6777# 1.15e-19
C36 a_n33_6819# a_18_6916# 0.0417f
C37 a_n76_n2972# a_n76_n4208# 0.00947f
C38 a_n33_n3069# a_18_n4208# 1.15e-19
C39 w_n112_n3072# a_18_n1736# 0.00199f
C40 w_n112_n6780# a_n76_n5444# 0.00199f
C41 a_n76_736# a_18_736# 0.747f
C42 a_n33_639# a_n76_n500# 1.15e-19
C43 w_n112_636# a_n76_n500# 0.00199f
C44 a_n33_n3069# a_n76_n2972# 0.0417f
C45 w_n112_n1836# a_n76_n500# 0.00199f
C46 a_18_n5444# a_18_n6680# 0.00947f
C47 a_n76_n4208# a_n33_n5541# 1.15e-19
C48 a_n33_n4305# a_n76_n5444# 1.15e-19
C49 w_n112_n3072# a_n76_n4208# 0.00199f
C50 a_n76_8152# w_n112_8052# 0.0182f
C51 a_n76_4444# w_n112_4344# 0.0182f
C52 w_n112_n6780# a_18_n5444# 0.00199f
C53 a_18_n7916# a_n33_n6777# 1.15e-19
C54 a_n33_6819# a_n33_5583# 0.0665f
C55 a_n76_8152# w_n112_6816# 0.00199f
C56 w_n112_n8016# a_n76_n6680# 0.00199f
C57 a_18_n7916# w_n112_n9252# 0.00199f
C58 w_n112_n1836# a_n76_n2972# 0.00199f
C59 w_n112_n3072# a_n33_n3069# 0.106f
C60 a_n76_736# a_n33_n597# 1.15e-19
C61 a_18_3208# a_18_1972# 0.00947f
C62 a_n33_1875# a_n76_1972# 0.0417f
C63 a_n33_639# a_18_n500# 1.15e-19
C64 a_18_3208# a_18_4444# 0.00947f
C65 w_n112_n4308# a_n76_n4208# 0.0182f
C66 a_n33_4347# a_n76_4444# 0.0417f
C67 w_n112_n600# a_n76_736# 0.00199f
C68 w_n112_636# a_18_n500# 0.00199f
C69 a_18_n5444# a_n33_n4305# 1.15e-19
C70 w_n112_n1836# a_18_n500# 0.00199f
C71 w_n112_n4308# a_n33_n3069# 4.13e-19
C72 a_n33_n6777# a_18_n6680# 0.0417f
C73 a_18_n7916# a_18_n6680# 0.00947f
C74 a_18_8152# w_n112_8052# 0.0182f
C75 a_18_4444# w_n112_4344# 0.0182f
C76 w_n112_n5544# a_n76_n6680# 0.00199f
C77 w_n112_n6780# a_n33_n6777# 0.106f
C78 w_n112_n6780# a_18_n7916# 0.00199f
C79 a_n33_6819# a_n76_5680# 1.15e-19
C80 a_18_n7916# a_n33_n9249# 1.15e-19
C81 a_18_8152# w_n112_6816# 0.00199f
C82 a_n76_n9152# w_n112_n8016# 0.00199f
C83 a_n33_n9249# w_n112_n9252# 0.106f
C84 a_n76_736# a_n76_n500# 0.00947f
C85 a_18_736# a_n33_n597# 1.15e-19
C86 a_n33_1875# a_18_1972# 0.0417f
C87 a_18_3208# a_n33_3111# 0.0417f
C88 a_n33_4347# a_18_4444# 0.0417f
C89 a_18_n5444# a_18_n4208# 0.00947f
C90 a_n33_8055# a_n76_6916# 1.15e-19
C91 w_n112_n600# a_18_736# 0.00199f
C92 a_n33_n5541# a_n76_n5444# 0.0417f
C93 a_18_3208# w_n112_1872# 0.00199f
C94 w_n112_n6780# a_18_n6680# 0.0182f
C95 a_18_3208# w_n112_3108# 0.0182f
C96 a_n33_n6777# a_n33_n8013# 0.0665f
C97 a_18_n7916# a_n33_n8013# 0.0417f
C98 a_18_n7916# a_18_n9152# 0.00947f
C99 w_n112_n9252# a_n33_n8013# 4.13e-19
C100 w_n112_n8016# a_n76_n7916# 0.0182f
C101 a_n33_n1833# a_18_n1736# 0.0417f
C102 a_n33_6819# w_n112_8052# 4.13e-19
C103 a_n33_3111# w_n112_4344# 4.13e-19
C104 a_18_n9152# w_n112_n9252# 0.0182f
C105 a_n33_6819# w_n112_5580# 4.13e-19
C106 a_n76_n1736# a_n33_n597# 1.15e-19
C107 a_n33_6819# a_18_5680# 1.15e-19
C108 w_n112_n4308# a_n76_n5444# 0.00199f
C109 a_n33_6819# w_n112_6816# 0.106f
C110 a_18_n2972# a_n33_n4305# 1.15e-19
C111 w_n112_4344# a_n33_5583# 4.13e-19
C112 a_n76_8152# a_18_8152# 0.747f
C113 a_n33_1875# a_n33_639# 0.0665f
C114 a_n76_1972# a_18_1972# 0.747f
C115 a_n33_1875# a_n33_3111# 0.0665f
C116 a_18_3208# a_n76_3208# 0.747f
C117 w_n112_n600# a_n76_n1736# 0.00199f
C118 a_18_n5444# a_n33_n5541# 0.0417f
C119 a_n76_4444# a_18_4444# 0.747f
C120 a_n33_4347# a_n33_3111# 0.0665f
C121 a_n33_8055# a_18_6916# 1.15e-19
C122 a_n33_1875# w_n112_636# 4.13e-19
C123 w_n112_n600# a_n33_n597# 0.106f
C124 w_n112_n5544# a_n76_n4208# 0.00199f
C125 a_n76_n6680# a_n76_n7916# 0.00947f
C126 a_18_n6680# a_n33_n8013# 1.15e-19
C127 a_n33_4347# a_n33_5583# 0.0665f
C128 a_n33_1875# w_n112_1872# 0.106f
C129 w_n112_n6780# a_n33_n8013# 4.13e-19
C130 a_n33_1875# w_n112_3108# 4.13e-19
C131 w_n112_3108# a_n33_4347# 4.13e-19
C132 a_n33_n9249# a_n33_n8013# 0.0665f
C133 a_n76_6916# a_18_6916# 0.747f
C134 w_n112_n4308# a_18_n5444# 0.00199f
C135 a_n33_n9249# a_18_n9152# 0.0417f
C136 a_18_n2972# a_18_n4208# 0.00947f
C137 a_n33_n1833# a_n33_n3069# 0.0665f
C138 a_n76_3208# w_n112_4344# 0.00199f
C139 a_n76_n1736# a_n76_n500# 0.00947f
C140 w_n112_4344# a_n76_5680# 0.00199f
C141 a_n76_8152# a_n33_6819# 1.15e-19
C142 a_n33_n597# a_n76_n500# 0.0417f
C143 a_18_736# a_18_n500# 0.00947f
C144 a_n76_1972# a_n33_639# 1.15e-19
C145 a_n76_n2972# a_18_n2972# 0.747f
C146 a_n76_1972# a_n33_3111# 1.15e-19
C147 a_n33_1875# a_n76_3208# 1.15e-19
C148 a_n33_4347# a_n76_3208# 1.15e-19
C149 a_n76_4444# a_n33_3111# 1.15e-19
C150 a_n33_n6777# a_n33_n5541# 0.0665f
C151 w_n112_n600# a_n76_n500# 0.0182f
C152 a_n76_1972# w_n112_636# 0.00199f
C153 w_n112_n1836# a_n33_n1833# 0.106f
C154 a_n76_4444# a_n33_5583# 1.15e-19
C155 a_n33_4347# a_n76_5680# 1.15e-19
C156 a_18_n9152# a_n33_n8013# 1.15e-19
C157 a_n76_n9152# a_n76_n7916# 0.00947f
C158 a_n76_1972# w_n112_1872# 0.0182f
C159 a_18_n1736# a_n33_n3069# 1.15e-19
C160 a_n76_n1736# a_n76_n2972# 0.00947f
C161 a_n76_1972# w_n112_3108# 0.00199f
C162 w_n112_3108# a_n76_4444# 0.00199f
C163 a_n76_6916# a_n33_5583# 1.15e-19
C164 a_n33_n4305# a_18_n4208# 0.0417f
C165 w_n112_n3072# a_18_n2972# 0.0182f
C166 a_18_n6680# a_n33_n5541# 1.15e-19
C167 a_n76_n6680# a_n76_n5444# 0.00947f
C168 w_n112_4344# a_18_5680# 0.00199f
C169 a_18_8152# a_n33_6819# 1.15e-19
C170 a_n33_1875# a_n76_736# 1.15e-19
C171 a_n33_n597# a_18_n500# 0.0417f
C172 a_18_1972# a_n33_639# 1.15e-19
C173 a_n76_n2972# a_n33_n4305# 1.15e-19
C174 a_n33_n3069# a_n76_n4208# 1.15e-19
C175 w_n112_n1836# a_18_n1736# 0.0182f
C176 w_n112_n3072# a_n76_n1736# 0.00199f
C177 a_n76_1972# a_n76_3208# 0.00947f
C178 a_18_1972# a_n33_3111# 1.15e-19
C179 w_n112_n5544# a_n76_n5444# 0.0182f
C180 w_n112_n6780# a_n33_n5541# 4.13e-19
C181 a_18_4444# a_n33_3111# 1.15e-19
C182 a_n76_4444# a_n76_3208# 0.00947f
C183 w_n112_n4308# a_18_n2972# 0.00199f
C184 w_n112_n600# a_18_n500# 0.0182f
C185 a_n33_4347# w_n112_5580# 4.13e-19
C186 a_18_1972# w_n112_636# 0.00199f
C187 a_n33_4347# a_18_5680# 1.15e-19
C188 a_n76_4444# a_n76_5680# 0.00947f
C189 a_18_4444# a_n33_5583# 1.15e-19
C190 a_18_1972# w_n112_1872# 0.0182f
C191 a_18_1972# w_n112_3108# 0.00199f
C192 w_n112_3108# a_18_4444# 0.00199f
C193 a_18_6916# a_n33_5583# 1.15e-19
C194 a_n76_6916# a_n76_5680# 0.00947f
C195 a_n33_n4305# a_n33_n5541# 0.0665f
C196 w_n112_n3072# a_n33_n4305# 4.13e-19
C197 w_n112_n5544# a_18_n5444# 0.0182f
C198 w_n112_n8016# a_n33_n6777# 4.13e-19
C199 a_n33_1875# a_18_736# 1.15e-19
C200 a_n76_1972# a_n76_736# 0.00947f
C201 a_18_n7916# w_n112_n8016# 0.0182f
C202 w_n112_8052# a_n33_8055# 0.106f
C203 a_n76_n500# a_18_n500# 0.747f
C204 w_n112_n1836# a_n33_n3069# 4.13e-19
C205 w_n112_n4308# a_n33_n4305# 0.106f
C206 a_n33_8055# w_n112_6816# 4.13e-19
C207 a_n33_639# w_n112_636# 0.106f
C208 a_n76_4444# w_n112_5580# 0.00199f
C209 a_n33_639# w_n112_1872# 4.13e-19
C210 a_n76_n4208# a_n76_n5444# 0.00947f
C211 a_18_n4208# a_n33_n5541# 1.15e-19
C212 w_n112_1872# a_n33_3111# 4.13e-19
C213 w_n112_n3072# a_18_n4208# 0.00199f
C214 w_n112_8052# a_n76_6916# 0.00199f
C215 w_n112_5580# a_n76_6916# 0.00199f
C216 w_n112_3108# a_n33_3111# 0.106f
C217 a_n33_n6777# a_n76_n6680# 0.0417f
C218 w_n112_6816# a_n76_6916# 0.0182f
C219 w_n112_n8016# a_18_n6680# 0.00199f
C220 w_n112_n3072# a_n76_n2972# 0.0182f
C221 w_n112_n5544# a_n33_n6777# 4.13e-19
C222 w_n112_n4308# a_18_n4208# 0.0182f
C223 a_n33_n9249# w_n112_n8016# 4.13e-19
C224 a_n33_3111# a_n76_3208# 0.0417f
C225 a_18_4444# w_n112_5580# 0.00199f
C226 w_n112_n4308# a_n76_n2972# 0.00199f
C227 a_n76_8152# a_n33_8055# 0.0417f
C228 a_18_4444# a_18_5680# 0.00947f
C229 a_n33_n1833# a_18_n2972# 1.15e-19
C230 a_n76_n6680# a_18_n6680# 0.747f
C231 w_n112_1872# a_n76_3208# 0.00199f
C232 w_n112_8052# a_18_6916# 0.00199f
C233 w_n112_5580# a_18_6916# 0.00199f
C234 w_n112_3108# a_n76_3208# 0.0182f
C235 a_n33_5583# a_n76_5680# 0.0417f
C236 w_n112_n6780# a_n76_n6680# 0.0182f
C237 a_18_6916# a_18_5680# 0.00947f
C238 w_n112_n5544# a_18_n6680# 0.00199f
C239 w_n112_6816# a_18_6916# 0.0182f
C240 w_n112_n8016# a_n33_n8013# 0.106f
C241 a_n33_n1833# a_n76_n1736# 0.0417f
C242 a_18_n9152# w_n112_n8016# 0.00199f
C243 a_n76_8152# a_n76_6916# 0.00947f
C244 a_n76_n9152# w_n112_n9252# 0.0182f
C245 w_n112_n4308# a_n33_n5541# 4.13e-19
C246 a_n33_n1833# a_n33_n597# 0.0665f
C247 a_18_1972# a_18_736# 0.00947f
C248 a_n33_639# a_n76_736# 0.0417f
C249 a_18_n1736# a_18_n2972# 0.00947f
C250 w_n112_n600# a_n33_n1833# 4.13e-19
C251 w_n112_636# a_n76_736# 0.0182f
C252 a_18_8152# a_n33_8055# 0.0417f
C253 w_n112_1872# a_n76_736# 0.00199f
C254 w_n112_n5544# a_n33_n4305# 4.13e-19
C255 a_n33_n6777# a_n76_n7916# 1.15e-19
C256 a_n76_n6680# a_n33_n8013# 1.15e-19
C257 a_18_n7916# a_n76_n7916# 0.747f
C258 w_n112_5580# a_n33_5583# 0.106f
C259 w_n112_n9252# a_n76_n7916# 0.00199f
C260 a_n76_n1736# a_18_n1736# 0.747f
C261 a_n33_5583# a_18_5680# 0.0417f
C262 w_n112_6816# a_n33_5583# 4.13e-19
C263 a_18_n1736# a_n33_n597# 1.15e-19
C264 a_n33_n9249# a_n76_n9152# 0.0417f
C265 w_n112_n600# a_18_n1736# 0.00199f
C266 a_n33_n1833# a_n76_n500# 1.15e-19
C267 a_18_n5444# a_n76_n5444# 0.747f
C268 a_n33_639# a_18_736# 0.0417f
C269 a_n33_n3069# a_18_n2972# 0.0417f
C270 w_n112_n5544# a_18_n4208# 0.00199f
C271 w_n112_636# a_18_736# 0.0182f
C272 a_18_n9152# VSUBS 0.426f
C273 a_n76_n9152# VSUBS 0.426f
C274 a_n33_n9249# VSUBS 0.192f
C275 a_18_n7916# VSUBS 0.415f
C276 a_n76_n7916# VSUBS 0.415f
C277 a_n33_n8013# VSUBS 0.156f
C278 a_18_n6680# VSUBS 0.415f
C279 a_n76_n6680# VSUBS 0.415f
C280 a_n33_n6777# VSUBS 0.156f
C281 a_18_n5444# VSUBS 0.415f
C282 a_n76_n5444# VSUBS 0.415f
C283 a_n33_n5541# VSUBS 0.156f
C284 a_18_n4208# VSUBS 0.415f
C285 a_n76_n4208# VSUBS 0.415f
C286 a_n33_n4305# VSUBS 0.156f
C287 a_18_n2972# VSUBS 0.415f
C288 a_n76_n2972# VSUBS 0.415f
C289 a_n33_n3069# VSUBS 0.156f
C290 a_18_n1736# VSUBS 0.415f
C291 a_n76_n1736# VSUBS 0.415f
C292 a_n33_n1833# VSUBS 0.156f
C293 a_18_n500# VSUBS 0.415f
C294 a_n76_n500# VSUBS 0.415f
C295 a_n33_n597# VSUBS 0.156f
C296 a_18_736# VSUBS 0.415f
C297 a_n76_736# VSUBS 0.415f
C298 a_n33_639# VSUBS 0.156f
C299 a_18_1972# VSUBS 0.415f
C300 a_n76_1972# VSUBS 0.415f
C301 a_n33_1875# VSUBS 0.156f
C302 a_18_3208# VSUBS 0.415f
C303 a_n76_3208# VSUBS 0.415f
C304 a_n33_3111# VSUBS 0.156f
C305 a_18_4444# VSUBS 0.415f
C306 a_n76_4444# VSUBS 0.415f
C307 a_n33_4347# VSUBS 0.156f
C308 a_18_5680# VSUBS 0.415f
C309 a_n76_5680# VSUBS 0.415f
C310 a_n33_5583# VSUBS 0.156f
C311 a_18_6916# VSUBS 0.415f
C312 a_n76_6916# VSUBS 0.415f
C313 a_n33_6819# VSUBS 0.156f
C314 a_18_8152# VSUBS 0.426f
C315 a_n76_8152# VSUBS 0.426f
C316 a_n33_8055# VSUBS 0.192f
C317 w_n112_n9252# VSUBS 0.806f
C318 w_n112_n8016# VSUBS 0.806f
C319 w_n112_n6780# VSUBS 0.806f
C320 w_n112_n5544# VSUBS 0.806f
C321 w_n112_n4308# VSUBS 0.806f
C322 w_n112_n3072# VSUBS 0.806f
C323 w_n112_n1836# VSUBS 0.806f
C324 w_n112_n600# VSUBS 0.806f
C325 w_n112_636# VSUBS 0.806f
C326 w_n112_1872# VSUBS 0.806f
C327 w_n112_3108# VSUBS 0.806f
C328 w_n112_4344# VSUBS 0.806f
C329 w_n112_5580# VSUBS 0.806f
C330 w_n112_6816# VSUBS 0.806f
C331 w_n112_8052# VSUBS 0.806f
.ends

.subckt sky130_fd_pr__nfet_01v8_MHE452 a_n158_n359# a_n100_957# a_100_n1295# a_n158_577#
+ a_n100_21# a_100_109# a_n100_n915# a_100_n827# a_n100_489# a_100_1045# a_n158_n1295#
+ a_n158_n827# a_100_577# a_n158_1045# a_n100_n447# a_n158_109# a_100_n359# a_n100_n1383#
+ VSUBS
X0 a_100_n827# a_n100_n915# a_n158_n827# VSUBS sky130_fd_pr__nfet_01v8 ad=0.363 pd=3.08 as=0.363 ps=3.08 w=1.25 l=1
**devattr s=14500,616 d=14500,616
X1 a_100_n359# a_n100_n447# a_n158_n359# VSUBS sky130_fd_pr__nfet_01v8 ad=0.363 pd=3.08 as=0.363 ps=3.08 w=1.25 l=1
**devattr s=14500,616 d=14500,616
X2 a_100_577# a_n100_489# a_n158_577# VSUBS sky130_fd_pr__nfet_01v8 ad=0.363 pd=3.08 as=0.363 ps=3.08 w=1.25 l=1
**devattr s=14500,616 d=14500,616
X3 a_100_1045# a_n100_957# a_n158_1045# VSUBS sky130_fd_pr__nfet_01v8 ad=0.363 pd=3.08 as=0.363 ps=3.08 w=1.25 l=1
**devattr s=14500,616 d=14500,616
X4 a_100_n1295# a_n100_n1383# a_n158_n1295# VSUBS sky130_fd_pr__nfet_01v8 ad=0.363 pd=3.08 as=0.363 ps=3.08 w=1.25 l=1
**devattr s=14500,616 d=14500,616
X5 a_100_109# a_n100_21# a_n158_109# VSUBS sky130_fd_pr__nfet_01v8 ad=0.363 pd=3.08 as=0.363 ps=3.08 w=1.25 l=1
**devattr s=14500,616 d=14500,616
C0 a_n158_577# a_100_577# 0.0693f
C1 a_n100_957# a_n158_1045# 0.0322f
C2 a_n158_n359# a_n158_109# 0.0113f
C3 a_100_109# a_n100_21# 0.0322f
C4 a_100_109# a_100_n359# 0.0113f
C5 a_n100_489# a_n100_21# 0.205f
C6 a_100_n827# a_100_n359# 0.0113f
C7 a_n158_n359# a_n100_n447# 0.0322f
C8 a_n158_577# a_n158_109# 0.0113f
C9 a_n100_n915# a_n100_n447# 0.205f
C10 a_100_1045# a_n100_957# 0.0322f
C11 a_100_1045# a_100_577# 0.0113f
C12 a_100_n827# a_n158_n827# 0.0693f
C13 a_n158_n1295# a_n158_n827# 0.0113f
C14 a_100_577# a_100_109# 0.0113f
C15 a_n100_489# a_n100_957# 0.205f
C16 a_n100_489# a_100_577# 0.0322f
C17 a_n100_n1383# a_n158_n1295# 0.0322f
C18 a_n158_577# a_n158_1045# 0.0113f
C19 a_n158_109# a_n100_21# 0.0322f
C20 a_n158_n359# a_100_n359# 0.0693f
C21 a_n100_21# a_n100_n447# 0.205f
C22 a_100_n359# a_n100_n447# 0.0322f
C23 a_n158_n359# a_n158_n827# 0.0113f
C24 a_100_109# a_n158_109# 0.0693f
C25 a_n100_n915# a_n158_n827# 0.0322f
C26 a_n100_n1383# a_n100_n915# 0.205f
C27 a_100_n827# a_n100_n915# 0.0322f
C28 a_n100_n1383# a_100_n1295# 0.0322f
C29 a_100_n827# a_100_n1295# 0.0113f
C30 a_100_1045# a_n158_1045# 0.0693f
C31 a_100_n1295# a_n158_n1295# 0.0693f
C32 a_n100_489# a_n158_577# 0.0322f
C33 a_100_n1295# VSUBS 0.14f
C34 a_n158_n1295# VSUBS 0.14f
C35 a_n100_n1383# VSUBS 0.553f
C36 a_100_n827# VSUBS 0.13f
C37 a_n158_n827# VSUBS 0.13f
C38 a_n100_n915# VSUBS 0.441f
C39 a_100_n359# VSUBS 0.13f
C40 a_n158_n359# VSUBS 0.13f
C41 a_n100_n447# VSUBS 0.441f
C42 a_100_109# VSUBS 0.13f
C43 a_n158_109# VSUBS 0.13f
C44 a_n100_21# VSUBS 0.441f
C45 a_100_577# VSUBS 0.13f
C46 a_n158_577# VSUBS 0.13f
C47 a_n100_489# VSUBS 0.441f
C48 a_100_1045# VSUBS 0.14f
C49 a_n158_1045# VSUBS 0.14f
C50 a_n100_957# VSUBS 0.553f
.ends

.subckt sky130_fd_pr__pfet_01v8_P2UXFR a_n300_n1215# w_n394_n1218# a_n358_n1118# a_n300_21#
+ a_300_118# w_n394_18# a_300_n1118# a_n358_118# VSUBS
X0 a_300_118# a_n300_21# a_n358_118# w_n394_18# sky130_fd_pr__pfet_01v8 ad=1.45 pd=10.6 as=1.45 ps=10.6 w=5 l=3
**devattr s=58000,2116 d=58000,2116
X1 a_300_n1118# a_n300_n1215# a_n358_n1118# w_n394_n1218# sky130_fd_pr__pfet_01v8 ad=1.45 pd=10.6 as=1.45 ps=10.6 w=5 l=3
**devattr s=58000,2116 d=58000,2116
C0 a_300_n1118# w_n394_18# 0.0023f
C1 w_n394_18# a_n300_21# 0.382f
C2 a_n358_118# w_n394_18# 0.0187f
C3 w_n394_18# a_300_118# 0.0187f
C4 w_n394_n1218# a_n300_n1215# 0.382f
C5 w_n394_n1218# a_n358_n1118# 0.0187f
C6 a_n300_n1215# a_n358_n1118# 0.184f
C7 a_300_n1118# a_300_118# 0.0105f
C8 a_n358_118# a_n300_21# 0.184f
C9 a_300_118# a_n300_21# 0.184f
C10 a_n358_118# a_300_118# 0.107f
C11 a_n300_n1215# w_n394_18# 0.00346f
C12 w_n394_18# a_n358_n1118# 0.0023f
C13 a_300_n1118# w_n394_n1218# 0.0187f
C14 a_300_n1118# a_n300_n1215# 0.184f
C15 a_300_n1118# a_n358_n1118# 0.107f
C16 w_n394_n1218# a_n300_21# 0.00346f
C17 a_n300_n1215# a_n300_21# 0.62f
C18 a_n358_118# w_n394_n1218# 0.0023f
C19 a_n358_118# a_n358_n1118# 0.0105f
C20 w_n394_n1218# a_300_118# 0.0023f
C21 a_300_n1118# VSUBS 0.536f
C22 a_n358_n1118# VSUBS 0.536f
C23 a_n300_n1215# VSUBS 1.08f
C24 a_300_118# VSUBS 0.536f
C25 a_n358_118# VSUBS 0.536f
C26 a_n300_21# VSUBS 1.08f
C27 w_n394_n1218# VSUBS 2.84f
C28 w_n394_18# VSUBS 2.84f
.ends

.subckt sky130_fd_pr__pfet_01v8_MGA63L a_18_n500# a_n33_n597# w_n112_n600# a_n76_n500#
+ VSUBS
X0 a_18_n500# a_n33_n597# a_n76_n500# w_n112_n600# sky130_fd_pr__pfet_01v8 ad=1.45 pd=10.6 as=1.45 ps=10.6 w=5 l=0.18
**devattr s=58000,2116 d=58000,2116
C0 a_n76_n500# a_18_n500# 0.747f
C1 w_n112_n600# a_n33_n597# 0.106f
C2 w_n112_n600# a_18_n500# 0.0182f
C3 a_18_n500# a_n33_n597# 0.0417f
C4 a_n76_n500# w_n112_n600# 0.0182f
C5 a_n76_n500# a_n33_n597# 0.0417f
C6 a_18_n500# VSUBS 0.437f
C7 a_n76_n500# VSUBS 0.437f
C8 a_n33_n597# VSUBS 0.228f
C9 w_n112_n600# VSUBS 0.806f
.ends

.subckt sky130_fd_pr__nfet_01v8_VT3ZQW a_n158_n125# a_n100_n213# a_100_n125# VSUBS
X0 a_100_n125# a_n100_n213# a_n158_n125# VSUBS sky130_fd_pr__nfet_01v8 ad=0.363 pd=3.08 as=0.363 ps=3.08 w=1.25 l=1
**devattr s=14500,616 d=14500,616
C0 a_n100_n213# a_n158_n125# 0.0322f
C1 a_100_n125# a_n100_n213# 0.0322f
C2 a_100_n125# a_n158_n125# 0.0693f
C3 a_100_n125# VSUBS 0.151f
C4 a_n158_n125# VSUBS 0.151f
C5 a_n100_n213# VSUBS 0.664f
.ends

.subckt sky130_fd_pr__pfet_01v8_RRUZAE a_n358_n2972# a_n300_n1833# a_n300_n3069# w_n394_n1836#
+ w_n394_1872# a_n358_n1736# a_300_736# a_300_1972# a_300_n2972# w_n394_636# w_n394_n3072#
+ a_n300_n597# a_300_n500# a_n300_639# a_n358_1972# a_n300_1875# w_n394_n600# a_300_n1736#
+ a_n358_n500# a_n358_736# VSUBS
X0 a_300_n500# a_n300_n597# a_n358_n500# w_n394_n600# sky130_fd_pr__pfet_01v8 ad=1.45 pd=10.6 as=1.45 ps=10.6 w=5 l=3
**devattr s=58000,2116 d=58000,2116
X1 a_300_736# a_n300_639# a_n358_736# w_n394_636# sky130_fd_pr__pfet_01v8 ad=1.45 pd=10.6 as=1.45 ps=10.6 w=5 l=3
**devattr s=58000,2116 d=58000,2116
X2 a_300_n2972# a_n300_n3069# a_n358_n2972# w_n394_n3072# sky130_fd_pr__pfet_01v8 ad=1.45 pd=10.6 as=1.45 ps=10.6 w=5 l=3
**devattr s=58000,2116 d=58000,2116
X3 a_300_1972# a_n300_1875# a_n358_1972# w_n394_1872# sky130_fd_pr__pfet_01v8 ad=1.45 pd=10.6 as=1.45 ps=10.6 w=5 l=3
**devattr s=58000,2116 d=58000,2116
X4 a_300_n1736# a_n300_n1833# a_n358_n1736# w_n394_n1836# sky130_fd_pr__pfet_01v8 ad=1.45 pd=10.6 as=1.45 ps=10.6 w=5 l=3
**devattr s=58000,2116 d=58000,2116
C0 a_n300_n3069# a_n300_n1833# 0.62f
C1 a_300_n500# w_n394_n1836# 0.0023f
C2 a_n358_n2972# w_n394_n3072# 0.0187f
C3 w_n394_n600# a_300_n500# 0.0187f
C4 a_n358_n2972# a_n358_n1736# 0.0105f
C5 w_n394_n1836# a_n300_n1833# 0.382f
C6 a_300_n500# a_300_736# 0.0105f
C7 w_n394_n600# a_n300_639# 0.00346f
C8 a_300_n500# a_300_n1736# 0.0105f
C9 a_n300_639# a_300_736# 0.184f
C10 a_n300_1875# a_n300_639# 0.62f
C11 a_n358_n2972# a_300_n2972# 0.107f
C12 w_n394_n1836# a_300_n1736# 0.0187f
C13 w_n394_n600# a_n300_n1833# 0.00346f
C14 w_n394_n3072# a_n358_n1736# 0.0023f
C15 w_n394_1872# a_300_1972# 0.0187f
C16 a_300_1972# w_n394_636# 0.0023f
C17 w_n394_n600# a_300_736# 0.0023f
C18 a_n358_n500# a_n358_n1736# 0.0105f
C19 a_n358_736# a_n358_n500# 0.0105f
C20 a_n300_n1833# a_300_n1736# 0.184f
C21 w_n394_n600# a_300_n1736# 0.0023f
C22 a_n358_n500# w_n394_636# 0.0023f
C23 w_n394_n3072# a_300_n2972# 0.0187f
C24 a_n358_736# w_n394_1872# 0.0023f
C25 a_n358_n2972# a_n300_n3069# 0.184f
C26 a_n358_736# w_n394_636# 0.0187f
C27 a_n300_1875# a_n358_1972# 0.184f
C28 a_n358_n2972# w_n394_n1836# 0.0023f
C29 w_n394_n3072# a_n300_n3069# 0.382f
C30 a_n300_n597# a_n358_n500# 0.184f
C31 a_n300_n597# w_n394_636# 0.00346f
C32 a_300_n500# a_n358_n500# 0.107f
C33 a_n300_n3069# a_300_n2972# 0.184f
C34 a_n358_n500# w_n394_n1836# 0.0023f
C35 a_300_n500# w_n394_636# 0.0023f
C36 w_n394_n1836# a_n358_n1736# 0.0187f
C37 w_n394_n3072# a_n300_n1833# 0.00346f
C38 a_n358_736# a_n300_639# 0.184f
C39 w_n394_1872# a_n300_639# 0.00346f
C40 a_n300_639# w_n394_636# 0.382f
C41 a_300_1972# a_300_736# 0.0105f
C42 a_n300_1875# a_300_1972# 0.184f
C43 w_n394_n600# a_n358_n500# 0.0187f
C44 a_n358_n1736# a_n300_n1833# 0.184f
C45 w_n394_n1836# a_300_n2972# 0.0023f
C46 w_n394_n600# a_n358_n1736# 0.0023f
C47 w_n394_n600# a_n358_736# 0.0023f
C48 w_n394_n3072# a_300_n1736# 0.0023f
C49 a_n358_1972# a_300_1972# 0.107f
C50 a_n358_736# a_300_736# 0.107f
C51 a_n300_n597# a_300_n500# 0.184f
C52 w_n394_1872# a_300_736# 0.0023f
C53 a_n300_1875# w_n394_1872# 0.382f
C54 a_n358_n1736# a_300_n1736# 0.107f
C55 w_n394_636# a_300_736# 0.0187f
C56 a_n300_1875# w_n394_636# 0.00346f
C57 a_n300_n597# w_n394_n1836# 0.00346f
C58 a_n300_n597# a_n300_639# 0.62f
C59 a_n358_1972# a_n358_736# 0.0105f
C60 a_n358_1972# w_n394_1872# 0.0187f
C61 w_n394_n1836# a_n300_n3069# 0.00346f
C62 a_n358_1972# w_n394_636# 0.0023f
C63 a_300_n2972# a_300_n1736# 0.0105f
C64 a_n300_n597# a_n300_n1833# 0.62f
C65 w_n394_n600# a_n300_n597# 0.382f
C66 a_300_n2972# VSUBS 0.536f
C67 a_n358_n2972# VSUBS 0.536f
C68 a_n300_n3069# VSUBS 1.08f
C69 a_300_n1736# VSUBS 0.524f
C70 a_n358_n1736# VSUBS 0.524f
C71 a_n300_n1833# VSUBS 0.739f
C72 a_300_n500# VSUBS 0.524f
C73 a_n358_n500# VSUBS 0.524f
C74 a_n300_n597# VSUBS 0.739f
C75 a_300_736# VSUBS 0.524f
C76 a_n358_736# VSUBS 0.524f
C77 a_n300_639# VSUBS 0.739f
C78 a_300_1972# VSUBS 0.536f
C79 a_n358_1972# VSUBS 0.536f
C80 a_n300_1875# VSUBS 1.08f
C81 w_n394_n3072# VSUBS 2.84f
C82 w_n394_n1836# VSUBS 2.84f
C83 w_n394_n600# VSUBS 2.84f
C84 w_n394_636# VSUBS 2.84f
C85 w_n394_1872# VSUBS 2.84f
.ends

.subckt sky130_fd_pr__pfet_01v8_8DHNHY w_n112_636# a_n33_n5541# a_n33_n8013# a_n76_736#
+ a_n33_9291# w_n112_1872# a_18_9388# w_n112_4344# a_18_n500# a_18_n2972# a_18_n5444#
+ a_n76_n1736# a_n33_3111# a_n76_n4208# a_18_3208# w_n112_9288# a_n76_n7916# a_n33_n1833#
+ a_18_6916# a_n76_5680# w_n112_n3072# a_n76_n10388# a_n33_n4305# a_n33_5583# a_n76_8152#
+ w_n112_n6780# a_n33_8055# a_n33_n3069# a_n33_639# w_n112_n9252# w_n112_3108# a_18_n10388#
+ w_n112_6816# a_n33_n6777# a_n33_n597# w_n112_n10488# a_n33_n9249# a_18_n1736# a_18_n4208#
+ a_18_n7916# a_n76_1972# a_n33_1875# w_n112_n600# a_n76_n6680# a_18_736# a_n76_4444#
+ a_18_5680# a_n33_4347# w_n112_n5544# a_n76_n9152# a_18_8152# w_n112_n8016# a_n76_n500#
+ a_n76_9388# w_n112_5580# w_n112_8052# a_18_n6680# a_n76_n2972# a_18_1972# a_n76_3208#
+ a_n76_n5444# a_18_4444# a_n76_6916# w_n112_n1836# a_n33_n10485# a_18_n9152# a_n33_6819#
+ w_n112_n4308# VSUBS
X0 a_18_3208# a_n33_3111# a_n76_3208# w_n112_3108# sky130_fd_pr__pfet_01v8 ad=1.45 pd=10.6 as=1.45 ps=10.6 w=5 l=0.18
**devattr s=58000,2116 d=58000,2116
X1 a_18_n6680# a_n33_n6777# a_n76_n6680# w_n112_n6780# sky130_fd_pr__pfet_01v8 ad=1.45 pd=10.6 as=1.45 ps=10.6 w=5 l=0.18
**devattr s=58000,2116 d=58000,2116
X2 a_18_9388# a_n33_9291# a_n76_9388# w_n112_9288# sky130_fd_pr__pfet_01v8 ad=1.45 pd=10.6 as=1.45 ps=10.6 w=5 l=0.18
**devattr s=58000,2116 d=58000,2116
X3 a_18_n500# a_n33_n597# a_n76_n500# w_n112_n600# sky130_fd_pr__pfet_01v8 ad=1.45 pd=10.6 as=1.45 ps=10.6 w=5 l=0.18
**devattr s=58000,2116 d=58000,2116
X4 a_18_n9152# a_n33_n9249# a_n76_n9152# w_n112_n9252# sky130_fd_pr__pfet_01v8 ad=1.45 pd=10.6 as=1.45 ps=10.6 w=5 l=0.18
**devattr s=58000,2116 d=58000,2116
X5 a_18_736# a_n33_639# a_n76_736# w_n112_636# sky130_fd_pr__pfet_01v8 ad=1.45 pd=10.6 as=1.45 ps=10.6 w=5 l=0.18
**devattr s=58000,2116 d=58000,2116
X6 a_18_n2972# a_n33_n3069# a_n76_n2972# w_n112_n3072# sky130_fd_pr__pfet_01v8 ad=1.45 pd=10.6 as=1.45 ps=10.6 w=5 l=0.18
**devattr s=58000,2116 d=58000,2116
X7 a_18_n7916# a_n33_n8013# a_n76_n7916# w_n112_n8016# sky130_fd_pr__pfet_01v8 ad=1.45 pd=10.6 as=1.45 ps=10.6 w=5 l=0.18
**devattr s=58000,2116 d=58000,2116
X8 a_18_5680# a_n33_5583# a_n76_5680# w_n112_5580# sky130_fd_pr__pfet_01v8 ad=1.45 pd=10.6 as=1.45 ps=10.6 w=5 l=0.18
**devattr s=58000,2116 d=58000,2116
X9 a_18_n5444# a_n33_n5541# a_n76_n5444# w_n112_n5544# sky130_fd_pr__pfet_01v8 ad=1.45 pd=10.6 as=1.45 ps=10.6 w=5 l=0.18
**devattr s=58000,2116 d=58000,2116
X10 a_18_8152# a_n33_8055# a_n76_8152# w_n112_8052# sky130_fd_pr__pfet_01v8 ad=1.45 pd=10.6 as=1.45 ps=10.6 w=5 l=0.18
**devattr s=58000,2116 d=58000,2116
X11 a_18_n1736# a_n33_n1833# a_n76_n1736# w_n112_n1836# sky130_fd_pr__pfet_01v8 ad=1.45 pd=10.6 as=1.45 ps=10.6 w=5 l=0.18
**devattr s=58000,2116 d=58000,2116
X12 a_18_6916# a_n33_6819# a_n76_6916# w_n112_6816# sky130_fd_pr__pfet_01v8 ad=1.45 pd=10.6 as=1.45 ps=10.6 w=5 l=0.18
**devattr s=58000,2116 d=58000,2116
X13 a_18_1972# a_n33_1875# a_n76_1972# w_n112_1872# sky130_fd_pr__pfet_01v8 ad=1.45 pd=10.6 as=1.45 ps=10.6 w=5 l=0.18
**devattr s=58000,2116 d=58000,2116
X14 a_18_n4208# a_n33_n4305# a_n76_n4208# w_n112_n4308# sky130_fd_pr__pfet_01v8 ad=1.45 pd=10.6 as=1.45 ps=10.6 w=5 l=0.18
**devattr s=58000,2116 d=58000,2116
X15 a_18_4444# a_n33_4347# a_n76_4444# w_n112_4344# sky130_fd_pr__pfet_01v8 ad=1.45 pd=10.6 as=1.45 ps=10.6 w=5 l=0.18
**devattr s=58000,2116 d=58000,2116
X16 a_18_n10388# a_n33_n10485# a_n76_n10388# w_n112_n10488# sky130_fd_pr__pfet_01v8 ad=1.45 pd=10.6 as=1.45 ps=10.6 w=5 l=0.18
**devattr s=58000,2116 d=58000,2116
C0 a_n76_5680# w_n112_4344# 0.00199f
C1 a_n76_n1736# a_n76_n2972# 0.00947f
C2 a_18_n1736# a_n33_n3069# 1.15e-19
C3 a_n33_n8013# a_n76_n7916# 0.0417f
C4 a_18_736# a_n33_n597# 1.15e-19
C5 a_18_n5444# w_n112_n4308# 0.00199f
C6 a_n33_639# a_n76_736# 0.0417f
C7 a_n76_n10388# w_n112_n9252# 0.00199f
C8 a_n33_n5541# w_n112_n6780# 4.13e-19
C9 a_18_9388# a_18_8152# 0.00947f
C10 a_18_n7916# a_n33_n9249# 1.15e-19
C11 a_18_n1736# w_n112_n600# 0.00199f
C12 a_18_n5444# a_18_n6680# 0.00947f
C13 a_18_6916# a_n76_6916# 0.747f
C14 a_18_1972# a_n33_1875# 0.0417f