* NGSPICE file created from opamp_cascode.ext - technology: sky130A

.subckt sky130_fd_pr__nfet_01v8_SCE452 a_n158_n125# a_n100_n213# a_100_n125# VSUBS
X0 a_100_n125# a_n100_n213# a_n158_n125# VSUBS sky130_fd_pr__nfet_01v8 ad=0.363 pd=3.08 as=0.363 ps=3.08 w=1.25 l=1
**devattr s=14500,616 d=14500,616
C0 a_n158_n125# a_100_n125# 0.0693f
C1 a_n100_n213# a_100_n125# 0.0322f
C2 a_n100_n213# a_n158_n125# 0.0322f
C3 a_100_n125# VSUBS 0.151f
C4 a_n158_n125# VSUBS 0.151f
C5 a_n100_n213# VSUBS 0.664f
.ends

.subckt sky130_fd_pr__pfet_01v8_ZLZ7XS w_n1594_n600# a_n1500_n597# a_1500_n500# a_n1558_n500#
+ VSUBS
X0 a_1500_n500# a_n1500_n597# a_n1558_n500# w_n1594_n600# sky130_fd_pr__pfet_01v8 ad=1.45 pd=10.6 as=1.45 ps=10.6 w=5 l=15
**devattr s=58000,2116 d=58000,2116
C0 a_n1500_n597# a_1500_n500# 0.217f
C1 w_n1594_n600# a_1500_n500# 0.0187f
C2 a_n1500_n597# a_n1558_n500# 0.217f
C3 w_n1594_n600# a_n1558_n500# 0.0187f
C4 w_n1594_n600# a_n1500_n597# 1.65f
C5 a_1500_n500# VSUBS 0.65f
C6 a_n1558_n500# VSUBS 0.65f
C7 a_n1500_n597# VSUBS 6.74f
C8 w_n1594_n600# VSUBS 11.5f
.ends

.subckt sky130_fd_pr__pfet_01v8_7DHACV w_n112_636# a_n33_n5541# a_n33_n8013# a_n76_736#
+ w_n112_1872# w_n112_4344# a_18_n500# a_18_n2972# a_18_n5444# a_n76_n1736# a_n33_3111#
+ a_n76_n4208# a_18_3208# a_n76_n7916# a_n33_n1833# a_18_6916# a_n76_5680# w_n112_n3072#
+ a_n33_n4305# a_n33_5583# a_n76_8152# w_n112_n6780# a_n33_8055# a_n33_n3069# a_n33_639#
+ w_n112_n9252# w_n112_3108# w_n112_6816# a_n33_n6777# a_n33_n597# a_n33_n9249# a_18_n1736#
+ a_18_n4208# a_18_n7916# a_n76_1972# a_n33_1875# w_n112_n600# a_n76_n6680# a_18_736#
+ a_n76_4444# a_18_5680# a_n33_4347# w_n112_n5544# a_n76_n9152# a_18_8152# w_n112_n8016#
+ a_n76_n500# w_n112_5580# w_n112_8052# a_18_n6680# a_n76_n2972# a_18_1972# a_n76_3208#
+ a_n76_n5444# a_18_4444# a_n76_6916# w_n112_n1836# a_18_n9152# a_n33_6819# w_n112_n4308#
+ VSUBS
X0 a_18_3208# a_n33_3111# a_n76_3208# w_n112_3108# sky130_fd_pr__pfet_01v8 ad=1.45 pd=10.6 as=1.45 ps=10.6 w=5 l=0.18
**devattr s=58000,2116 d=58000,2116
X1 a_18_n6680# a_n33_n6777# a_n76_n6680# w_n112_n6780# sky130_fd_pr__pfet_01v8 ad=1.45 pd=10.6 as=1.45 ps=10.6 w=5 l=0.18
**devattr s=58000,2116 d=58000,2116
X2 a_18_n500# a_n33_n597# a_n76_n500# w_n112_n600# sky130_fd_pr__pfet_01v8 ad=1.45 pd=10.6 as=1.45 ps=10.6 w=5 l=0.18
**devattr s=58000,2116 d=58000,2116
X3 a_18_n9152# a_n33_n9249# a_n76_n9152# w_n112_n9252# sky130_fd_pr__pfet_01v8 ad=1.45 pd=10.6 as=1.45 ps=10.6 w=5 l=0.18
**devattr s=58000,2116 d=58000,2116
X4 a_18_736# a_n33_639# a_n76_736# w_n112_636# sky130_fd_pr__pfet_01v8 ad=1.45 pd=10.6 as=1.45 ps=10.6 w=5 l=0.18
**devattr s=58000,2116 d=58000,2116
X5 a_18_n2972# a_n33_n3069# a_n76_n2972# w_n112_n3072# sky130_fd_pr__pfet_01v8 ad=1.45 pd=10.6 as=1.45 ps=10.6 w=5 l=0.18
**devattr s=58000,2116 d=58000,2116
X6 a_18_n7916# a_n33_n8013# a_n76_n7916# w_n112_n8016# sky130_fd_pr__pfet_01v8 ad=1.45 pd=10.6 as=1.45 ps=10.6 w=5 l=0.18
**devattr s=58000,2116 d=58000,2116
X7 a_18_5680# a_n33_5583# a_n76_5680# w_n112_5580# sky130_fd_pr__pfet_01v8 ad=1.45 pd=10.6 as=1.45 ps=10.6 w=5 l=0.18
**devattr s=58000,2116 d=58000,2116
X8 a_18_n5444# a_n33_n5541# a_n76_n5444# w_n112_n5544# sky130_fd_pr__pfet_01v8 ad=1.45 pd=10.6 as=1.45 ps=10.6 w=5 l=0.18
**devattr s=58000,2116 d=58000,2116
X9 a_18_8152# a_n33_8055# a_n76_8152# w_n112_8052# sky130_fd_pr__pfet_01v8 ad=1.45 pd=10.6 as=1.45 ps=10.6 w=5 l=0.18
**devattr s=58000,2116 d=58000,2116
X10 a_18_n1736# a_n33_n1833# a_n76_n1736# w_n112_n1836# sky130_fd_pr__pfet_01v8 ad=1.45 pd=10.6 as=1.45 ps=10.6 w=5 l=0.18
**devattr s=58000,2116 d=58000,2116
X11 a_18_6916# a_n33_6819# a_n76_6916# w_n112_6816# sky130_fd_pr__pfet_01v8 ad=1.45 pd=10.6 as=1.45 ps=10.6 w=5 l=0.18
**devattr s=58000,2116 d=58000,2116
X12 a_18_1972# a_n33_1875# a_n76_1972# w_n112_1872# sky130_fd_pr__pfet_01v8 ad=1.45 pd=10.6 as=1.45 ps=10.6 w=5 l=0.18
**devattr s=58000,2116 d=58000,2116
X13 a_18_n4208# a_n33_n4305# a_n76_n4208# w_n112_n4308# sky130_fd_pr__pfet_01v8 ad=1.45 pd=10.6 as=1.45 ps=10.6 w=5 l=0.18
**devattr s=58000,2116 d=58000,2116
X14 a_18_4444# a_n33_4347# a_n76_4444# w_n112_4344# sky130_fd_pr__pfet_01v8 ad=1.45 pd=10.6 as=1.45 ps=10.6 w=5 l=0.18
**devattr s=58000,2116 d=58000,2116
C0 a_18_n5444# a_18_n6680# 0.00947f
C1 a_n76_n2972# w_n112_n1836# 0.00199f
C2 a_n33_n5541# a_n33_n4305# 0.0665f
C3 a_n76_3208# a_n76_1972# 0.00947f
C4 a_18_3208# a_n33_1875# 1.15e-19
C5 a_n33_3111# a_18_1972# 1.15e-19
C6 w_n112_n3072# a_18_n1736# 0.00199f
C7 a_18_736# a_n33_639# 0.0417f
C8 a_n33_n6777# w_n112_n6780# 0.106f
C9 a_18_n1736# a_n33_n597# 1.15e-19
C10 a_18_n9152# w_n112_n9252# 0.0182f
C11 a_n76_n7916# a_18_n7916# 0.747f
C12 a_18_n4208# w_n112_n5544# 0.00199f
C13 a_n76_n2972# a_n33_n1833# 1.15e-19
C14 a_n33_n3069# a_n76_n1736# 1.15e-19
C15 a_n33_3111# w_n112_1872# 4.13e-19
C16 a_n33_8055# a_18_6916# 1.15e-19
C17 a_n33_3111# w_n112_4344# 4.13e-19
C18 a_n33_n3069# a_18_n2972# 0.0417f
C19 a_n33_3111# w_n112_3108# 0.106f
C20 a_18_n5444# a_n33_n4305# 1.15e-19
C21 a_n76_n5444# a_n76_n4208# 0.00947f
C22 a_n33_5583# w_n112_4344# 4.13e-19
C23 a_18_736# w_n112_n600# 0.00199f
C24 a_n33_n6777# a_18_n6680# 0.0417f
C25 a_18_736# w_n112_636# 0.0182f
C26 a_n76_n6680# w_n112_n8016# 0.00199f
C27 a_18_n6680# w_n112_n6780# 0.0182f
C28 a_18_736# a_n76_736# 0.747f
C29 a_n33_n597# a_n33_639# 0.0665f
C30 a_n33_8055# a_n76_8152# 0.0417f
C31 a_n76_n7916# a_n33_n9249# 1.15e-19
C32 a_n33_n8013# a_n76_n9152# 1.15e-19
C33 a_n33_n5541# w_n112_n5544# 0.106f
C34 a_n76_n5444# w_n112_n4308# 0.00199f
C35 a_n76_3208# w_n112_1872# 0.00199f
C36 a_n33_n3069# a_n33_n4305# 0.0665f
C37 a_n76_3208# w_n112_4344# 0.00199f
C38 a_n76_3208# w_n112_3108# 0.0182f
C39 a_n76_5680# w_n112_4344# 0.00199f
C40 a_n33_n597# w_n112_n600# 0.106f
C41 a_n33_n597# w_n112_636# 4.13e-19
C42 a_18_3208# a_18_1972# 0.00947f
C43 a_n76_4444# a_18_4444# 0.747f
C44 a_n33_n597# a_n76_736# 1.15e-19
C45 a_n76_n500# a_n33_639# 1.15e-19
C46 a_18_n5444# w_n112_n5544# 0.0182f
C47 a_18_n1736# a_18_n500# 0.00947f
C48 w_n112_n3072# a_n33_n3069# 0.106f
C49 a_n33_8055# a_18_8152# 0.0417f
C50 a_n33_8055# w_n112_6816# 4.13e-19
C51 a_n33_n5541# a_n76_n5444# 0.0417f
C52 a_18_n2972# a_n33_n4305# 1.15e-19
C53 a_n76_n2972# a_n76_n4208# 0.00947f
C54 a_18_6916# w_n112_5580# 0.00199f
C55 a_n76_4444# w_n112_5580# 0.00199f
C56 a_18_3208# w_n112_1872# 0.00199f
C57 a_18_6916# w_n112_6816# 0.0182f
C58 a_18_8152# a_18_6916# 0.00947f
C59 a_18_3208# w_n112_4344# 0.00199f
C60 a_18_3208# w_n112_3108# 0.0182f
C61 a_n76_n6680# a_n33_n8013# 1.15e-19
C62 a_n33_n6777# a_n76_n7916# 1.15e-19
C63 a_18_n1736# w_n112_n1836# 0.0182f
C64 a_18_5680# w_n112_4344# 0.00199f
C65 a_n76_n500# w_n112_n600# 0.0182f
C66 w_n112_n3072# a_n76_n1736# 0.00199f
C67 a_n33_n8013# w_n112_n8016# 0.106f
C68 a_n76_n7916# w_n112_n6780# 0.00199f
C69 a_n33_1875# a_n76_1972# 0.0417f
C70 a_n76_n500# w_n112_636# 0.00199f
C71 a_n76_4444# a_n33_3111# 1.15e-19
C72 a_18_6916# a_n33_5583# 1.15e-19
C73 w_n112_n3072# a_18_n2972# 0.0182f
C74 w_n112_n4308# a_n76_n2972# 0.00199f
C75 a_n33_n597# a_n76_n1736# 1.15e-19
C76 a_n76_n500# a_n76_736# 0.00947f
C77 a_18_n500# a_n33_639# 1.15e-19
C78 a_n33_n9249# a_n76_n9152# 0.0417f
C79 a_n76_4444# a_n33_5583# 1.15e-19
C80 a_n76_n5444# a_18_n5444# 0.747f
C81 a_n33_n6777# w_n112_n5544# 4.13e-19
C82 a_18_n1736# a_n33_n1833# 0.0417f
C83 a_n76_8152# w_n112_6816# 0.00199f
C84 a_n76_8152# a_18_8152# 0.747f
C85 a_n33_8055# a_n33_6819# 0.0665f
C86 a_18_4444# w_n112_5580# 0.00199f
C87 a_n33_6819# a_18_6916# 0.0417f
C88 a_18_n7916# w_n112_n8016# 0.0182f
C89 a_n76_n7916# w_n112_n9252# 0.00199f
C90 a_n33_4347# w_n112_4344# 0.106f
C91 a_18_n500# w_n112_n600# 0.0182f
C92 w_n112_3108# a_n33_4347# 4.13e-19
C93 a_n76_n9152# a_18_n9152# 0.747f
C94 a_18_n6680# w_n112_n5544# 0.00199f
C95 a_n33_1875# a_18_1972# 0.0417f
C96 a_18_n500# w_n112_636# 0.00199f
C97 a_n76_4444# a_n76_3208# 0.00947f
C98 a_18_4444# a_n33_3111# 1.15e-19
C99 w_n112_n3072# a_n33_n4305# 4.13e-19
C100 a_n76_n500# a_n76_n1736# 0.00947f
C101 a_18_4444# a_n33_5583# 1.15e-19
C102 a_n76_4444# a_n76_5680# 0.00947f
C103 a_18_736# a_n33_n597# 1.15e-19
C104 a_n33_n5541# a_n76_n6680# 1.15e-19
C105 a_n76_n5444# a_n33_n6777# 1.15e-19
C106 a_n76_n5444# w_n112_n6780# 0.00199f
C107 a_18_8152# w_n112_6816# 0.00199f
C108 a_n76_8152# a_n33_6819# 1.15e-19
C109 a_n33_8055# a_n76_6916# 1.15e-19
C110 w_n112_1872# a_n33_1875# 0.106f
C111 a_n76_6916# a_18_6916# 0.747f
C112 w_n112_3108# a_n33_1875# 4.13e-19
C113 a_n33_5583# w_n112_5580# 0.106f
C114 a_n33_n9249# w_n112_n8016# 4.13e-19
C115 a_n33_n1833# w_n112_n600# 4.13e-19
C116 a_n33_5583# w_n112_6816# 4.13e-19
C117 w_n112_n4308# a_n76_n4208# 0.0182f
C118 a_18_n4208# a_n76_n4208# 0.747f
C119 w_n112_n5544# a_n33_n4305# 4.13e-19
C120 a_n76_1972# a_18_1972# 0.747f
C121 a_n33_1875# a_n33_639# 0.0665f
C122 a_n33_n3069# w_n112_n1836# 4.13e-19
C123 a_18_6916# a_18_5680# 0.00947f
C124 a_n33_6819# w_n112_5580# 4.13e-19
C125 w_n112_8052# a_n33_8055# 0.106f
C126 a_n76_8152# a_n76_6916# 0.00947f
C127 a_18_8152# a_n33_6819# 1.15e-19
C128 a_n33_6819# w_n112_6816# 0.106f
C129 a_n76_n9152# w_n112_n9252# 0.0182f
C130 a_18_n9152# w_n112_n8016# 0.00199f
C131 a_n33_n8013# a_18_n7916# 0.0417f
C132 w_n112_1872# a_n76_1972# 0.0182f
C133 a_18_n4208# w_n112_n4308# 0.0182f
C134 a_n33_n3069# a_n33_n1833# 0.0665f
C135 w_n112_8052# a_18_6916# 0.00199f
C136 a_n76_n1736# w_n112_n1836# 0.0182f
C137 w_n112_3108# a_n76_1972# 0.00199f
C138 a_n76_5680# w_n112_5580# 0.0182f
C139 a_n33_n3069# a_n76_n2972# 0.0417f
C140 a_18_n2972# w_n112_n1836# 0.00199f
C141 a_n76_5680# w_n112_6816# 0.00199f
C142 a_n33_1875# w_n112_636# 4.13e-19
C143 a_n33_6819# a_n33_5583# 0.0665f
C144 a_n76_n5444# a_n33_n4305# 1.15e-19
C145 a_n33_n5541# a_n76_n4208# 1.15e-19
C146 a_n76_1972# a_n33_639# 1.15e-19
C147 a_n33_1875# a_n76_736# 1.15e-19
C148 a_n33_n6777# a_n76_n6680# 0.0417f
C149 a_18_4444# a_18_3208# 0.00947f
C150 a_n33_3111# a_n76_3208# 0.0417f
C151 a_n33_n1833# a_n76_n1736# 0.0417f
C152 a_n76_n6680# w_n112_n6780# 0.0182f
C153 a_n33_n6777# w_n112_n8016# 4.13e-19
C154 a_18_4444# a_18_5680# 0.00947f
C155 a_n76_4444# a_n33_4347# 0.0417f
C156 a_n33_n597# a_n76_n500# 0.0417f
C157 a_18_736# a_18_n500# 0.00947f
C158 a_n76_6916# w_n112_5580# 0.00199f
C159 a_18_n2972# a_n33_n1833# 1.15e-19
C160 a_n76_n2972# a_n76_n1736# 0.00947f
C161 a_n33_5583# a_n76_5680# 0.0417f
C162 w_n112_8052# a_n76_8152# 0.0182f
C163 a_n76_6916# w_n112_6816# 0.0182f
C164 a_n33_n8013# a_n33_n9249# 0.0665f
C165 w_n112_1872# a_18_1972# 0.0182f
C166 a_n33_n5541# w_n112_n4308# 4.13e-19
C167 a_18_n4208# a_n33_n5541# 1.15e-19
C168 a_n76_n2972# a_18_n2972# 0.747f
C169 w_n112_3108# a_18_1972# 0.00199f
C170 a_18_5680# w_n112_5580# 0.0182f
C171 a_n76_n6680# a_18_n6680# 0.747f
C172 a_n76_1972# w_n112_636# 0.00199f
C173 a_18_5680# w_n112_6816# 0.00199f
C174 a_n33_6819# a_n76_5680# 1.15e-19
C175 a_n76_6916# a_n33_5583# 1.15e-19
C176 a_18_n6680# w_n112_n8016# 0.00199f
C177 a_18_1972# a_n33_639# 1.15e-19
C178 a_n76_1972# a_n76_736# 0.00947f
C179 a_n33_3111# a_18_3208# 0.0417f
C180 a_18_4444# a_n33_4347# 0.0417f
C181 a_n33_n597# a_18_n500# 0.0417f
C182 a_n33_n8013# a_18_n9152# 1.15e-19
C183 a_18_n7916# a_n33_n9249# 1.15e-19
C184 a_n76_n7916# a_n76_n9152# 0.00947f
C185 a_n76_n5444# w_n112_n5544# 0.0182f
C186 a_18_n5444# w_n112_n4308# 0.00199f
C187 a_18_n4208# a_18_n5444# 0.00947f
C188 w_n112_8052# a_18_8152# 0.0182f
C189 a_n33_5583# a_18_5680# 0.0417f
C190 a_n33_6819# a_n76_6916# 0.0417f
C191 w_n112_1872# a_n33_639# 4.13e-19
C192 a_n76_n2972# a_n33_n4305# 1.15e-19
C193 a_n33_n3069# a_n76_n4208# 1.15e-19
C194 a_n33_n597# w_n112_n1836# 4.13e-19
C195 a_n33_4347# w_n112_5580# 4.13e-19
C196 a_18_1972# w_n112_636# 0.00199f
C197 a_n76_6916# a_n76_5680# 0.00947f
C198 a_n33_6819# a_18_5680# 1.15e-19
C199 a_n33_n6777# a_n33_n8013# 0.0665f
C200 a_18_n1736# w_n112_n600# 0.00199f
C201 w_n112_n3072# a_n33_n1833# 4.13e-19
C202 a_n33_n8013# w_n112_n6780# 4.13e-19
C203 a_18_n7916# a_18_n9152# 0.00947f
C204 a_n76_3208# a_18_3208# 0.747f
C205 a_18_736# a_n33_1875# 1.15e-19
C206 w_n112_n3072# a_n76_n2972# 0.0182f
C207 a_n33_3111# a_n33_4347# 0.0665f
C208 w_n112_n4308# a_n33_n3069# 4.13e-19
C209 a_18_n4208# a_n33_n3069# 1.15e-19
C210 a_n33_n597# a_n33_n1833# 0.0665f
C211 a_n76_n500# a_18_n500# 0.747f
C212 a_n33_n5541# a_18_n5444# 0.0417f
C213 a_n76_5680# a_18_5680# 0.747f
C214 w_n112_8052# a_n33_6819# 4.13e-19
C215 a_n33_5583# a_n33_4347# 0.0665f
C216 w_n112_1872# a_n76_736# 0.00199f
C217 a_18_n1736# a_n33_n3069# 1.15e-19
C218 a_n76_n6680# a_n76_n7916# 0.00947f
C219 a_18_n6680# a_n33_n8013# 1.15e-19
C220 a_n33_n6777# a_18_n7916# 1.15e-19
C221 a_n76_n500# w_n112_n1836# 0.00199f
C222 a_n33_639# w_n112_n600# 4.13e-19
C223 a_n76_n7916# w_n112_n8016# 0.0182f
C224 a_n33_n8013# w_n112_n9252# 4.13e-19
C225 a_18_n7916# w_n112_n6780# 0.00199f
C226 a_n33_639# w_n112_636# 0.106f
C227 w_n112_n4308# a_18_n2972# 0.00199f
C228 a_18_n4208# a_18_n2972# 0.00947f
C229 a_n33_3111# a_n33_1875# 0.0665f
C230 a_n33_639# a_n76_736# 0.0417f
C231 a_n33_n9249# a_18_n9152# 0.0417f
C232 a_n76_n6680# w_n112_n5544# 0.00199f
C233 a_18_n1736# a_n76_n1736# 0.747f
C234 a_n76_3208# a_n33_4347# 1.15e-19
C235 a_n76_n500# a_n33_n1833# 1.15e-19
C236 a_n33_n5541# a_n33_n6777# 0.0665f
C237 a_n33_n4305# a_n76_n4208# 0.0417f
C238 a_n76_5680# a_n33_4347# 1.15e-19
C239 w_n112_8052# a_n76_6916# 0.00199f
C240 a_18_n1736# a_18_n2972# 0.00947f
C241 a_n33_n5541# w_n112_n6780# 4.13e-19
C242 a_18_n6680# a_18_n7916# 0.00947f
C243 a_18_n7916# w_n112_n9252# 0.00199f
C244 a_n76_4444# w_n112_4344# 0.0182f
C245 a_n76_4444# w_n112_3108# 0.00199f
C246 a_18_n500# w_n112_n1836# 0.00199f
C247 a_n76_736# w_n112_n600# 0.00199f
C248 a_n76_736# w_n112_636# 0.0182f
C249 w_n112_n3072# a_n76_n4208# 0.00199f
C250 w_n112_n4308# a_n33_n4305# 0.106f
C251 a_18_n4208# a_n33_n4305# 0.0417f
C252 a_n76_3208# a_n33_1875# 1.15e-19
C253 a_n33_3111# a_n76_1972# 1.15e-19
C254 a_n76_n5444# a_n76_n6680# 0.00947f
C255 a_n33_n5541# a_18_n6680# 1.15e-19
C256 a_18_n5444# a_n33_n6777# 1.15e-19
C257 a_18_736# a_18_1972# 0.00947f
C258 a_18_3208# a_n33_4347# 1.15e-19
C259 a_18_n5444# w_n112_n6780# 0.00199f
C260 a_18_n500# a_n33_n1833# 1.15e-19
C261 a_18_5680# a_n33_4347# 1.15e-19
C262 a_n76_n9152# w_n112_n8016# 0.00199f
C263 a_n33_n9249# w_n112_n9252# 0.106f
C264 a_n33_n8013# a_n76_n7916# 0.0417f
C265 a_18_736# w_n112_1872# 0.00199f
C266 a_18_n4208# w_n112_n3072# 0.00199f
C267 a_18_4444# w_n112_4344# 0.0182f
C268 a_18_4444# w_n112_3108# 0.00199f
C269 a_n76_n1736# w_n112_n600# 0.00199f
C270 a_n33_n1833# w_n112_n1836# 0.106f
C271 w_n112_n5544# a_n76_n4208# 0.00199f
C272 a_18_n9152# VSUBS 0.426f
C273 a_n76_n9152# VSUBS 0.426f
C274 a_n33_n9249# VSUBS 0.192f
C275 a_18_n7916# VSUBS 0.415f
C276 a_n76_n7916# VSUBS 0.415f
C277 a_n33_n8013# VSUBS 0.156f
C278 a_18_n6680# VSUBS 0.415f
C279 a_n76_n6680# VSUBS 0.415f
C280 a_n33_n6777# VSUBS 0.156f
C281 a_18_n5444# VSUBS 0.415f
C282 a_n76_n5444# VSUBS 0.415f
C283 a_n33_n5541# VSUBS 0.156f
C284 a_18_n4208# VSUBS 0.415f
C285 a_n76_n4208# VSUBS 0.415f
C286 a_n33_n4305# VSUBS 0.156f
C287 a_18_n2972# VSUBS 0.415f
C288 a_n76_n2972# VSUBS 0.415f
C289 a_n33_n3069# VSUBS 0.156f
C290 a_18_n1736# VSUBS 0.415f
C291 a_n76_n1736# VSUBS 0.415f
C292 a_n33_n1833# VSUBS 0.156f
C293 a_18_n500# VSUBS 0.415f
C294 a_n76_n500# VSUBS 0.415f
C295 a_n33_n597# VSUBS 0.156f
C296 a_18_736# VSUBS 0.415f
C297 a_n76_736# VSUBS 0.415f
C298 a_n33_639# VSUBS 0.156f
C299 a_18_1972# VSUBS 0.415f
C300 a_n76_1972# VSUBS 0.415f
C301 a_n33_1875# VSUBS 0.156f
C302 a_18_3208# VSUBS 0.415f
C303 a_n76_3208# VSUBS 0.415f
C304 a_n33_3111# VSUBS 0.156f
C305 a_18_4444# VSUBS 0.415f
C306 a_n76_4444# VSUBS 0.415f
C307 a_n33_4347# VSUBS 0.156f
C308 a_18_5680# VSUBS 0.415f
C309 a_n76_5680# VSUBS 0.415f
C310 a_n33_5583# VSUBS 0.156f
C311 a_18_6916# VSUBS 0.415f
C312 a_n76_6916# VSUBS 0.415f
C313 a_n33_6819# VSUBS 0.156f
C314 a_18_8152# VSUBS 0.426f
C315 a_n76_8152# VSUBS 0.426f
C316 a_n33_8055# VSUBS 0.192f
C317 w_n112_n9252# VSUBS 0.806f
C318 w_n112_n8016# VSUBS 0.806f
C319 w_n112_n6780# VSUBS 0.806f
C320 w_n112_n5544# VSUBS 0.806f
C321 w_n112_n4308# VSUBS 0.806f
C322 w_n112_n3072# VSUBS 0.806f
C323 w_n112_n1836# VSUBS 0.806f
C324 w_n112_n600# VSUBS 0.806f
C325 w_n112_636# VSUBS 0.806f
C326 w_n112_1872# VSUBS 0.806f
C327 w_n112_3108# VSUBS 0.806f
C328 w_n112_4344# VSUBS 0.806f
C329 w_n112_5580# VSUBS 0.806f
C330 w_n112_6816# VSUBS 0.806f
C331 w_n112_8052# VSUBS 0.806f
.ends

.subckt sky130_fd_pr__nfet_01v8_MHE452 a_n158_n359# a_n100_957# a_100_n1295# a_n158_577#
+ a_n100_21# a_100_109# a_n100_n915# a_100_n827# a_n100_489# a_100_1045# a_n158_n1295#
+ a_n158_n827# a_100_577# a_n158_1045# a_n100_n447# a_n158_109# a_100_n359# a_n100_n1383#
+ VSUBS
X0 a_100_n827# a_n100_n915# a_n158_n827# VSUBS sky130_fd_pr__nfet_01v8 ad=0.363 pd=3.08 as=0.363 ps=3.08 w=1.25 l=1
**devattr s=14500,616 d=14500,616
X1 a_100_n359# a_n100_n447# a_n158_n359# VSUBS sky130_fd_pr__nfet_01v8 ad=0.363 pd=3.08 as=0.363 ps=3.08 w=1.25 l=1
**devattr s=14500,616 d=14500,616
X2 a_100_577# a_n100_489# a_n158_577# VSUBS sky130_fd_pr__nfet_01v8 ad=0.363 pd=3.08 as=0.363 ps=3.08 w=1.25 l=1
**devattr s=14500,616 d=14500,616
X3 a_100_1045# a_n100_957# a_n158_1045# VSUBS sky130_fd_pr__nfet_01v8 ad=0.363 pd=3.08 as=0.363 ps=3.08 w=1.25 l=1
**devattr s=14500,616 d=14500,616
X4 a_100_n1295# a_n100_n1383# a_n158_n1295# VSUBS sky130_fd_pr__nfet_01v8 ad=0.363 pd=3.08 as=0.363 ps=3.08 w=1.25 l=1
**devattr s=14500,616 d=14500,616
X5 a_100_109# a_n100_21# a_n158_109# VSUBS sky130_fd_pr__nfet_01v8 ad=0.363 pd=3.08 as=0.363 ps=3.08 w=1.25 l=1
**devattr s=14500,616 d=14500,616
C0 a_n158_1045# a_100_1045# 0.0693f
C1 a_100_n1295# a_n100_n1383# 0.0322f
C2 a_n158_n359# a_n100_n447# 0.0322f
C3 a_100_n1295# a_100_n827# 0.0113f
C4 a_n100_n447# a_n100_n915# 0.205f
C5 a_n158_109# a_100_109# 0.0693f
C6 a_n158_n827# a_100_n827# 0.0693f
C7 a_n158_109# a_n158_n359# 0.0113f
C8 a_n100_489# a_n158_577# 0.0322f
C9 a_n158_n1295# a_100_n1295# 0.0693f
C10 a_n158_577# a_100_577# 0.0693f
C11 a_n158_n1295# a_n158_n827# 0.0113f
C12 a_100_n359# a_100_n827# 0.0113f
C13 a_n158_n359# a_n158_n827# 0.0113f
C14 a_n100_957# a_100_1045# 0.0322f
C15 a_n100_n915# a_n158_n827# 0.0322f
C16 a_n100_957# a_n100_489# 0.205f
C17 a_100_109# a_100_n359# 0.0113f
C18 a_n100_n447# a_100_n359# 0.0322f
C19 a_n158_109# a_n158_577# 0.0113f
C20 a_n100_21# a_n100_489# 0.205f
C21 a_n158_n359# a_100_n359# 0.0693f
C22 a_n158_1045# a_n158_577# 0.0113f
C23 a_100_1045# a_100_577# 0.0113f
C24 a_n158_n1295# a_n100_n1383# 0.0322f
C25 a_n100_21# a_100_109# 0.0322f
C26 a_n100_21# a_n100_n447# 0.205f
C27 a_n100_489# a_100_577# 0.0322f
C28 a_n100_n915# a_n100_n1383# 0.205f
C29 a_100_577# a_100_109# 0.0113f
C30 a_n100_957# a_n158_1045# 0.0322f
C31 a_n100_21# a_n158_109# 0.0322f
C32 a_n100_n915# a_100_n827# 0.0322f
C33 a_100_n1295# VSUBS 0.14f
C34 a_n158_n1295# VSUBS 0.14f
C35 a_n100_n1383# VSUBS 0.553f
C36 a_100_n827# VSUBS 0.13f
C37 a_n158_n827# VSUBS 0.13f
C38 a_n100_n915# VSUBS 0.441f
C39 a_100_n359# VSUBS 0.13f
C40 a_n158_n359# VSUBS 0.13f
C41 a_n100_n447# VSUBS 0.441f
C42 a_100_109# VSUBS 0.13f
C43 a_n158_109# VSUBS 0.13f
C44 a_n100_21# VSUBS 0.441f
C45 a_100_577# VSUBS 0.13f
C46 a_n158_577# VSUBS 0.13f
C47 a_n100_489# VSUBS 0.441f
C48 a_100_1045# VSUBS 0.14f
C49 a_n158_1045# VSUBS 0.14f
C50 a_n100_957# VSUBS 0.553f
.ends

.subckt sky130_fd_pr__pfet_01v8_P2UXFR a_n300_n1215# w_n394_n1218# a_n358_n1118# a_n300_21#
+ a_300_118# w_n394_18# a_300_n1118# a_n358_118# VSUBS
X0 a_300_118# a_n300_21# a_n358_118# w_n394_18# sky130_fd_pr__pfet_01v8 ad=1.45 pd=10.6 as=1.45 ps=10.6 w=5 l=3
**devattr s=58000,2116 d=58000,2116
X1 a_300_n1118# a_n300_n1215# a_n358_n1118# w_n394_n1218# sky130_fd_pr__pfet_01v8 ad=1.45 pd=10.6 as=1.45 ps=10.6 w=5 l=3
**devattr s=58000,2116 d=58000,2116
C0 a_300_n1118# a_n300_n1215# 0.184f
C1 a_300_n1118# w_n394_n1218# 0.0187f
C2 a_n300_n1215# a_n300_21# 0.62f
C3 w_n394_n1218# a_n358_118# 0.0023f
C4 a_300_118# w_n394_18# 0.0187f
C5 a_n358_n1118# w_n394_18# 0.0023f
C6 w_n394_n1218# a_n300_21# 0.00346f
C7 a_n358_n1118# a_n300_n1215# 0.184f
C8 a_300_118# w_n394_n1218# 0.0023f
C9 w_n394_18# a_n300_n1215# 0.00346f
C10 a_n358_n1118# w_n394_n1218# 0.0187f
C11 a_n358_118# a_n300_21# 0.184f
C12 a_n300_n1215# w_n394_n1218# 0.382f
C13 a_300_118# a_300_n1118# 0.0105f
C14 a_300_118# a_n358_118# 0.107f
C15 a_n358_n1118# a_300_n1118# 0.107f
C16 a_n358_n1118# a_n358_118# 0.0105f
C17 a_300_118# a_n300_21# 0.184f
C18 a_300_n1118# w_n394_18# 0.0023f
C19 w_n394_18# a_n358_118# 0.0187f
C20 w_n394_18# a_n300_21# 0.382f
C21 a_300_n1118# VSUBS 0.536f
C22 a_n358_n1118# VSUBS 0.536f
C23 a_n300_n1215# VSUBS 1.08f
C24 a_300_118# VSUBS 0.536f
C25 a_n358_118# VSUBS 0.536f
C26 a_n300_21# VSUBS 1.08f
C27 w_n394_n1218# VSUBS 2.84f
C28 w_n394_18# VSUBS 2.84f
.ends

.subckt sky130_fd_pr__nfet_01v8_VT3ZQW a_n158_n125# a_n100_n213# a_100_n125# VSUBS
X0 a_100_n125# a_n100_n213# a_n158_n125# VSUBS sky130_fd_pr__nfet_01v8 ad=0.363 pd=3.08 as=0.363 ps=3.08 w=1.25 l=1
**devattr s=14500,616 d=14500,616
C0 a_100_n125# a_n158_n125# 0.0693f
C1 a_n100_n213# a_n158_n125# 0.0322f
C2 a_100_n125# a_n100_n213# 0.0322f
C3 a_100_n125# VSUBS 0.151f
C4 a_n158_n125# VSUBS 0.151f
C5 a_n100_n213# VSUBS 0.664f
.ends

.subckt sky130_fd_pr__pfet_01v8_RRUZAE a_n358_n2972# a_n300_n1833# a_n300_n3069# w_n394_n1836#
+ w_n394_1872# a_n358_n1736# a_300_736# a_300_1972# a_300_n2972# w_n394_636# w_n394_n3072#
+ a_n300_n597# a_300_n500# a_n300_639# a_n358_1972# a_n300_1875# w_n394_n600# a_300_n1736#
+ a_n358_n500# a_n358_736# VSUBS
X0 a_300_n500# a_n300_n597# a_n358_n500# w_n394_n600# sky130_fd_pr__pfet_01v8 ad=1.45 pd=10.6 as=1.45 ps=10.6 w=5 l=3
**devattr s=58000,2116 d=58000,2116
X1 a_300_736# a_n300_639# a_n358_736# w_n394_636# sky130_fd_pr__pfet_01v8 ad=1.45 pd=10.6 as=1.45 ps=10.6 w=5 l=3
**devattr s=58000,2116 d=58000,2116
X2 a_300_n2972# a_n300_n3069# a_n358_n2972# w_n394_n3072# sky130_fd_pr__pfet_01v8 ad=1.45 pd=10.6 as=1.45 ps=10.6 w=5 l=3
**devattr s=58000,2116 d=58000,2116
X3 a_300_1972# a_n300_1875# a_n358_1972# w_n394_1872# sky130_fd_pr__pfet_01v8 ad=1.45 pd=10.6 as=1.45 ps=10.6 w=5 l=3
**devattr s=58000,2116 d=58000,2116
X4 a_300_n1736# a_n300_n1833# a_n358_n1736# w_n394_n1836# sky130_fd_pr__pfet_01v8 ad=1.45 pd=10.6 as=1.45 ps=10.6 w=5 l=3
**devattr s=58000,2116 d=58000,2116
C0 a_300_736# a_300_1972# 0.0105f
C1 a_n358_n1736# a_n358_n500# 0.0105f
C2 a_n358_736# a_n358_1972# 0.0105f
C3 w_n394_n1836# a_n358_n500# 0.0023f
C4 w_n394_n600# a_300_n1736# 0.0023f
C5 w_n394_1872# a_n300_1875# 0.382f
C6 w_n394_n1836# a_300_n500# 0.0023f
C7 w_n394_636# a_300_736# 0.0187f
C8 w_n394_n600# a_300_736# 0.0023f
C9 a_n300_1875# a_n358_1972# 0.184f
C10 a_300_n1736# a_300_n500# 0.0105f
C11 a_n358_n1736# w_n394_n3072# 0.0023f
C12 w_n394_1872# a_n358_1972# 0.0187f
C13 a_n358_n2972# w_n394_n3072# 0.0187f
C14 w_n394_n1836# a_n300_n597# 0.00346f
C15 w_n394_636# a_n300_639# 0.382f
C16 a_300_n500# a_300_736# 0.0105f
C17 w_n394_n600# a_n300_639# 0.00346f
C18 a_n358_736# a_300_736# 0.107f
C19 w_n394_636# a_300_1972# 0.0023f
C20 w_n394_n600# a_n300_n1833# 0.00346f
C21 a_300_n1736# w_n394_n3072# 0.0023f
C22 a_n300_n3069# w_n394_n3072# 0.382f
C23 a_n358_n1736# a_n358_n2972# 0.0105f
C24 w_n394_n1836# a_n358_n1736# 0.0187f
C25 w_n394_n1836# a_n358_n2972# 0.0023f
C26 a_n358_736# a_n300_639# 0.184f
C27 w_n394_1872# a_300_736# 0.0023f
C28 a_300_n1736# a_n358_n1736# 0.107f
C29 a_n300_n3069# a_n358_n2972# 0.184f
C30 w_n394_n1836# a_300_n1736# 0.0187f
C31 a_n300_n597# a_n300_639# 0.62f
C32 a_n300_n3069# w_n394_n1836# 0.00346f
C33 a_n300_639# a_n300_1875# 0.62f
C34 w_n394_636# a_n358_n500# 0.0023f
C35 a_n300_n597# a_n300_n1833# 0.62f
C36 w_n394_n3072# a_n300_n1833# 0.00346f
C37 w_n394_1872# a_n300_639# 0.00346f
C38 w_n394_n600# a_n358_n500# 0.0187f
C39 w_n394_636# a_300_n500# 0.0023f
C40 a_n300_1875# a_300_1972# 0.184f
C41 w_n394_636# a_n358_736# 0.0187f
C42 w_n394_n600# a_300_n500# 0.0187f
C43 w_n394_1872# a_300_1972# 0.0187f
C44 w_n394_n600# a_n358_736# 0.0023f
C45 w_n394_n3072# a_300_n2972# 0.0187f
C46 a_300_n500# a_n358_n500# 0.107f
C47 a_n358_n1736# a_n300_n1833# 0.184f
C48 a_n300_n597# w_n394_636# 0.00346f
C49 a_n358_736# a_n358_n500# 0.0105f
C50 w_n394_636# a_n300_1875# 0.00346f
C51 a_n358_1972# a_300_1972# 0.107f
C52 w_n394_n600# a_n300_n597# 0.382f
C53 w_n394_n1836# a_n300_n1833# 0.382f
C54 a_n300_n597# a_n358_n500# 0.184f
C55 a_n358_n2972# a_300_n2972# 0.107f
C56 w_n394_636# a_n358_1972# 0.0023f
C57 w_n394_n1836# a_300_n2972# 0.0023f
C58 a_300_n1736# a_n300_n1833# 0.184f
C59 a_n300_n3069# a_n300_n1833# 0.62f
C60 a_n300_n597# a_300_n500# 0.184f
C61 w_n394_n600# a_n358_n1736# 0.0023f
C62 a_n300_639# a_300_736# 0.184f
C63 w_n394_1872# a_n358_736# 0.0023f
C64 a_300_n1736# a_300_n2972# 0.0105f
C65 a_n300_n3069# a_300_n2972# 0.184f
C66 a_300_n2972# VSUBS 0.536f
C67 a_n358_n2972# VSUBS 0.536f
C68 a_n300_n3069# VSUBS 1.08f
C69 a_300_n1736# VSUBS 0.524f
C70 a_n358_n1736# VSUBS 0.524f
C71 a_n300_n1833# VSUBS 0.739f
C72 a_300_n500# VSUBS 0.524f
C73 a_n358_n500# VSUBS 0.524f
C74 a_n300_n597# VSUBS 0.739f
C75 a_300_736# VSUBS 0.524f
C76 a_n358_736# VSUBS 0.524f
C77 a_n300_639# VSUBS 0.739f
C78 a_300_1972# VSUBS 0.536f
C79 a_n358_1972# VSUBS 0.536f
C80 a_n300_1875# VSUBS 1.08f
C81 w_n394_n3072# VSUBS 2.84f
C82 w_n394_n1836# VSUBS 2.84f
C83 w_n394_n600# VSUBS 2.84f
C84 w_n394_636# VSUBS 2.84f
C85 w_n394_1872# VSUBS 2.84f
.ends

.subckt sky130_fd_pr__pfet_01v8_F76D73 a_n1558_11242# a_n1558_n14714# a_n1500_n43239#
+ w_n1594_n3690# a_n1500_n11103# a_n1558_50794# a_1500_n23366# a_n1500_n50655# w_n1594_n56838#
+ w_n1594_n24702# a_1500_n30782# a_n1500_3729# a_n1558_n60446# w_n1594_12378# a_1500_n8534#
+ a_n1558_14950# a_1500_n19658# a_n1500_n14811# a_n1500_n46947# w_n1594_9906# w_n1594_n6162#
+ a_1500_22366# a_n1500_22269# a_n1558_53266# a_n1558_n56738# a_n1558_n24602# a_n1558_21130#
+ a_n1500_n53127# w_n1594_n13578# a_n1558_60682# a_1500_n33254# a_n1500_n60543# w_n1594_n20994#
+ a_1500_n40670# a_1500_18658# a_n1558_49558# a_n1558_17422# w_n1594_22266# a_n1500_n49419#
+ w_n1594_n9870# a_n1500_25977# a_n1558_56974# a_n1500_n56835# a_1500_n29546# a_n1558_n3590#
+ a_1500_n36962# a_n1500_9909# a_n1558_n13478# a_1500_32254# a_n1500_32157# a_n1558_n20894#
+ w_n1594_18558# w_n1594_n23466# a_1500_n43142# w_n1594_n30882# w_n1594_25974# a_n1500_n2451#
+ a_1500_28546# a_1500_n7298# a_n1500_28449# a_n1558_59446# a_n1558_27310# a_n1500_n13575#
+ a_n1500_n59307# w_n1594_32154# w_n1594_n19758# a_1500_35962# a_n1558_n6062# a_n1500_35865#
+ a_1500_n39434# a_n1500_n20991# a_1500_n46850# a_n1558_n23366# a_1500_42142# a_n1500_42045#
+ a_n1558_n30782# w_n1594_n33354# w_n1594_28446# a_1500_n53030# w_n1594_35862# w_n1594_n40770#
+ a_n1558_n9770# w_n1594_18# a_n1558_16186# a_n1500_21# a_n1558_n19658# a_n1500_n16047#
+ a_1500_38434# a_n1500_38337# a_n1500_n55599# a_n1500_n23463# w_n1594_n29646# a_1500_45850#
+ w_n1594_42042# a_n1500_45753# a_n1558_40906# a_1500_n49322# a_n1558_n33254# a_1500_52030#
+ a_n1500_n8631# a_n1558_n40670# a_n1558_19894# w_n1594_38334# w_n1594_n43242# a_n1500_n19755#
+ w_n1594_45750# a_n1558_26074# a_n1558_n29546# a_1500_48322# a_n1500_48225# a_1500_n38198#
+ a_n1558_33490# a_n1558_n36962# a_n1500_n33351# w_n1594_n39534# a_n1500_55641# a_1500_n59210#
+ w_n1594_n46950# a_n1558_n43142# a_n1558_29782# w_n1594_n53130# a_n1500_n29643# w_n1594_48222#
+ a_1500_37198# a_n1558_n39434# a_1500_58210# a_n1500_58113# a_n1500_12381# a_1500_n1118#
+ a_1500_n48086# a_n1558_n46850# w_n1594_n49422# a_n1500_n7395# a_n1558_n53030# w_n1594_37098#
+ a_n1558_39670# a_n1500_n39531# w_n1594_58110# a_1500_n4826# a_1500_47086# a_n1558_10006#
+ a_n1558_n49322# w_n1594_n2454# w_n1594_n38298# a_1500_2590# w_n1594_2490# w_n1594_n59310#
+ a_n1500_6201# a_n1500_18561# a_n1558_13714# a_n1558_2590# a_1500_n25838# a_n1558_n38198#
+ a_1500_5062# a_1500_118# a_n1558_n59210# w_n1594_n48186# w_n1594_n16050# a_1500_n32018#
+ a_n1500_2493# a_1500_24838# a_n1558_5062# a_n1500_n38295# w_n1594_n8634# a_1500_8770#
+ a_n1558_55738# a_n1558_23602# a_n1558_n2354# w_n1594_8670# a_1500_n35726# a_n1558_n48086#
+ a_1500_31018# w_n1594_n58074# w_n1594_24738# a_n1558_8770# a_n1500_n1215# a_n1558_12478#
+ a_n1500_n12339# a_n1500_n48183# a_1500_34726# a_n1500_34629# w_n1594_n25938# a_1500_n45614#
+ a_n1500_8673# w_n1594_n32118# a_n1500_n4923# w_n1594_34626# a_n1558_n8534# w_n1594_n7398#
+ a_n1558_22366# a_n1558_n25838# a_n1500_n22227# a_n1500_n58071# a_1500_44614# a_n1500_44517#
+ a_n1500_n61779# w_n1594_n35826# a_n1500_51933# a_1500_n55502# a_n1558_n32018# a_n1558_18658#
+ w_n1594_n42006# a_n1500_n18519# a_n1500_n25935# w_n1594_44514# w_n1594_51930# a_n1558_32254#
+ a_n1558_n35726# a_n1500_n32115# a_1500_54502# a_n1500_54405# a_1500_n44378# a_1500_n12242#
+ w_n1594_n45714# a_1500_n51794# a_n1500_n3687# a_n1558_28546# a_n1558_n7298# a_n1500_n28407#
+ a_n1558_35962# a_n1500_n35823# w_n1594_54402# a_1500_n15950# a_1500_43378# a_1500_11242#
+ a_n1500_11145# a_n1558_42142# a_n1558_n45614# a_1500_50794# a_n1500_n42003# a_n1500_50697#
+ a_1500_n54266# a_1500_n22130# a_n1500_n6159# w_n1594_n55602# a_1500_n61682# a_n1558_38434#
+ a_n1500_n24699# w_n1594_43278# w_n1594_11142# a_1500_14950# a_n1500_46989# a_n1558_45850#
+ a_n1500_14853# a_1500_n18422# a_n1500_n45711# w_n1594_50694# a_1500_n57974# a_n1500_n9867#
+ w_n1594_n1218# a_1500_53266# a_1500_1354# a_n1500_53169# a_1500_21130# a_n1500_21033#
+ a_n1558_n55502# a_n1558_52030# w_n1594_1254# w_n1594_n12342# w_n1594_n44478# a_1500_60682#
+ a_n1500_60585# w_n1594_14850# w_n1594_n51894# w_n1594_46986# a_1500_49558# a_1500_17422#
+ a_n1558_48322# a_n1500_17325# a_n1500_n34587# a_1500_56974# a_n1558_1354# w_n1594_53166#
+ w_n1594_21030# w_n1594_n4926# a_n1500_56877# a_n1500_24741# a_1500_n3590# a_1500_n28310#
+ w_n1594_60582# w_n1594_4962# a_n1558_n44378# a_n1558_n12242# a_n1558_n51794# w_n1594_17322#
+ w_n1594_n22230# w_n1594_n54366# w_n1594_49458# a_n1500_1257# w_n1594_n61782# w_n1594_56874#
+ a_n1558_37198# a_n1500_n37059# a_1500_59446# a_1500_27310# a_1500_7534# a_n1500_59349#
+ a_n1500_27213# a_1500_n6062# a_1500_n17186# a_n1558_58210# a_n1558_n15950# a_n1500_n44475#