* NGSPICE file created from opamp_cascode.ext - technology: sky130A

.subckt sky130_fd_pr__nfet_01v8_SCE452 a_n158_n125# a_n100_n213# a_100_n125# VSUBS
X0 a_100_n125# a_n100_n213# a_n158_n125# VSUBS sky130_fd_pr__nfet_01v8 ad=0.363 pd=3.08 as=0.363 ps=3.08 w=1.25 l=1
**devattr s=14500,616 d=14500,616
C0 a_n158_n125# a_100_n125# 0.0693f
C1 a_n100_n213# a_100_n125# 0.0322f
C2 a_n100_n213# a_n158_n125# 0.0322f
C3 a_100_n125# VSUBS 0.151f
C4 a_n158_n125# VSUBS 0.151f
C5 a_n100_n213# VSUBS 0.664f
.ends

.subckt sky130_fd_pr__pfet_01v8_ZLZ7XS w_n1594_n600# a_n1500_n597# a_1500_n500# a_n1558_n500#
+ VSUBS
X0 a_1500_n500# a_n1500_n597# a_n1558_n500# w_n1594_n600# sky130_fd_pr__pfet_01v8 ad=1.45 pd=10.6 as=1.45 ps=10.6 w=5 l=15
**devattr s=58000,2116 d=58000,2116
C0 w_n1594_n600# a_1500_n500# 0.0187f
C1 a_n1500_n597# a_n1558_n500# 0.217f
C2 a_1500_n500# a_n1500_n597# 0.217f
C3 w_n1594_n600# a_n1558_n500# 0.0187f
C4 w_n1594_n600# a_n1500_n597# 1.65f
C5 a_1500_n500# VSUBS 0.65f
C6 a_n1558_n500# VSUBS 0.65f
C7 a_n1500_n597# VSUBS 6.74f
C8 w_n1594_n600# VSUBS 11.5f
.ends

.subckt sky130_fd_pr__pfet_01v8_7DHACV w_n112_636# a_n33_n5541# a_n33_n8013# a_n76_736#
+ w_n112_1872# w_n112_4344# a_18_n500# a_18_n2972# a_18_n5444# a_n76_n1736# a_n33_3111#
+ a_n76_n4208# a_18_3208# a_n76_n7916# a_n33_n1833# a_18_6916# a_n76_5680# w_n112_n3072#
+ a_n33_n4305# a_n33_5583# a_n76_8152# w_n112_n6780# a_n33_8055# a_n33_n3069# a_n33_639#
+ w_n112_n9252# w_n112_3108# w_n112_6816# a_n33_n6777# a_n33_n597# a_n33_n9249# a_18_n1736#
+ a_18_n4208# a_18_n7916# a_n76_1972# a_n33_1875# w_n112_n600# a_n76_n6680# a_18_736#
+ a_n76_4444# a_18_5680# a_n33_4347# w_n112_n5544# a_n76_n9152# a_18_8152# w_n112_n8016#
+ a_n76_n500# w_n112_5580# w_n112_8052# a_18_n6680# a_n76_n2972# a_18_1972# a_n76_3208#
+ a_n76_n5444# a_18_4444# a_n76_6916# w_n112_n1836# a_18_n9152# a_n33_6819# w_n112_n4308#
+ VSUBS
X0 a_18_3208# a_n33_3111# a_n76_3208# w_n112_3108# sky130_fd_pr__pfet_01v8 ad=1.45 pd=10.6 as=1.45 ps=10.6 w=5 l=0.18
**devattr s=58000,2116 d=58000,2116
X1 a_18_n6680# a_n33_n6777# a_n76_n6680# w_n112_n6780# sky130_fd_pr__pfet_01v8 ad=1.45 pd=10.6 as=1.45 ps=10.6 w=5 l=0.18
**devattr s=58000,2116 d=58000,2116
X2 a_18_n500# a_n33_n597# a_n76_n500# w_n112_n600# sky130_fd_pr__pfet_01v8 ad=1.45 pd=10.6 as=1.45 ps=10.6 w=5 l=0.18
**devattr s=58000,2116 d=58000,2116
X3 a_18_n9152# a_n33_n9249# a_n76_n9152# w_n112_n9252# sky130_fd_pr__pfet_01v8 ad=1.45 pd=10.6 as=1.45 ps=10.6 w=5 l=0.18
**devattr s=58000,2116 d=58000,2116
X4 a_18_736# a_n33_639# a_n76_736# w_n112_636# sky130_fd_pr__pfet_01v8 ad=1.45 pd=10.6 as=1.45 ps=10.6 w=5 l=0.18
**devattr s=58000,2116 d=58000,2116
X5 a_18_n2972# a_n33_n3069# a_n76_n2972# w_n112_n3072# sky130_fd_pr__pfet_01v8 ad=1.45 pd=10.6 as=1.45 ps=10.6 w=5 l=0.18
**devattr s=58000,2116 d=58000,2116
X6 a_18_n7916# a_n33_n8013# a_n76_n7916# w_n112_n8016# sky130_fd_pr__pfet_01v8 ad=1.45 pd=10.6 as=1.45 ps=10.6 w=5 l=0.18
**devattr s=58000,2116 d=58000,2116
X7 a_18_5680# a_n33_5583# a_n76_5680# w_n112_5580# sky130_fd_pr__pfet_01v8 ad=1.45 pd=10.6 as=1.45 ps=10.6 w=5 l=0.18
**devattr s=58000,2116 d=58000,2116
X8 a_18_n5444# a_n33_n5541# a_n76_n5444# w_n112_n5544# sky130_fd_pr__pfet_01v8 ad=1.45 pd=10.6 as=1.45 ps=10.6 w=5 l=0.18
**devattr s=58000,2116 d=58000,2116
X9 a_18_8152# a_n33_8055# a_n76_8152# w_n112_8052# sky130_fd_pr__pfet_01v8 ad=1.45 pd=10.6 as=1.45 ps=10.6 w=5 l=0.18
**devattr s=58000,2116 d=58000,2116
X10 a_18_n1736# a_n33_n1833# a_n76_n1736# w_n112_n1836# sky130_fd_pr__pfet_01v8 ad=1.45 pd=10.6 as=1.45 ps=10.6 w=5 l=0.18
**devattr s=58000,2116 d=58000,2116
X11 a_18_6916# a_n33_6819# a_n76_6916# w_n112_6816# sky130_fd_pr__pfet_01v8 ad=1.45 pd=10.6 as=1.45 ps=10.6 w=5 l=0.18
**devattr s=58000,2116 d=58000,2116
X12 a_18_1972# a_n33_1875# a_n76_1972# w_n112_1872# sky130_fd_pr__pfet_01v8 ad=1.45 pd=10.6 as=1.45 ps=10.6 w=5 l=0.18
**devattr s=58000,2116 d=58000,2116
X13 a_18_n4208# a_n33_n4305# a_n76_n4208# w_n112_n4308# sky130_fd_pr__pfet_01v8 ad=1.45 pd=10.6 as=1.45 ps=10.6 w=5 l=0.18
**devattr s=58000,2116 d=58000,2116
X14 a_18_4444# a_n33_4347# a_n76_4444# w_n112_4344# sky130_fd_pr__pfet_01v8 ad=1.45 pd=10.6 as=1.45 ps=10.6 w=5 l=0.18
**devattr s=58000,2116 d=58000,2116
C0 w_n112_n5544# a_n33_n6777# 4.13e-19
C1 a_18_n4208# w_n112_n3072# 0.00199f
C2 w_n112_n4308# a_18_n4208# 0.0182f
C3 a_n33_n597# a_n76_n1736# 1.15e-19
C4 a_n33_8055# w_n112_6816# 4.13e-19
C5 a_n33_n4305# a_n76_n4208# 0.0417f
C6 a_18_4444# w_n112_4344# 0.0182f
C7 a_n33_4347# a_n33_5583# 0.0665f
C8 a_n76_n6680# a_n33_n5541# 1.15e-19
C9 w_n112_636# a_n33_639# 0.106f
C10 a_n33_5583# w_n112_4344# 4.13e-19
C11 a_n76_6916# a_n33_5583# 1.15e-19
C12 a_n76_n1736# w_n112_n1836# 0.0182f
C13 a_n33_n1833# w_n112_n3072# 4.13e-19
C14 w_n112_1872# a_n33_639# 4.13e-19
C15 a_n33_n8013# a_n76_n7916# 0.0417f
C16 w_n112_n5544# a_18_n6680# 0.00199f
C17 w_n112_n6780# a_n76_n6680# 0.0182f
C18 a_n33_4347# a_n76_3208# 1.15e-19
C19 a_n33_1875# a_n76_736# 1.15e-19
C20 a_n76_1972# a_n33_639# 1.15e-19
C21 a_n76_n4208# a_18_n4208# 0.747f
C22 a_n76_4444# a_18_4444# 0.747f
C23 a_n33_4347# a_n33_3111# 0.0665f
C24 a_n76_n500# a_n76_n1736# 0.00947f
C25 w_n112_n4308# a_n33_n5541# 4.13e-19
C26 a_n76_8152# w_n112_6816# 0.00199f
C27 a_18_736# a_n33_n597# 1.15e-19
C28 w_n112_n8016# a_n76_n7916# 0.0182f
C29 w_n112_n9252# a_n33_n8013# 4.13e-19
C30 a_n76_3208# w_n112_4344# 0.00199f
C31 a_18_8152# a_18_6916# 0.00947f
C32 a_n33_3111# w_n112_4344# 4.13e-19
C33 a_n76_4444# a_n33_5583# 1.15e-19
C34 a_n76_n5444# a_n76_n6680# 0.00947f
C35 a_18_n5444# a_n33_n6777# 1.15e-19
C36 a_18_n1736# w_n112_n3072# 0.00199f
C37 w_n112_n5544# a_n33_n4305# 4.13e-19
C38 w_n112_636# a_n76_736# 0.0182f
C39 a_n76_n7916# a_18_n7916# 0.747f
C40 a_n33_639# w_n112_n600# 4.13e-19
C41 a_18_6916# a_n33_5583# 1.15e-19
C42 w_n112_1872# a_n76_736# 0.00199f
C43 a_n33_6819# w_n112_8052# 4.13e-19
C44 w_n112_n4308# a_n76_n5444# 0.00199f
C45 w_n112_n9252# a_18_n7916# 0.00199f
C46 a_n76_4444# a_n76_3208# 0.00947f
C47 a_n33_4347# a_18_3208# 1.15e-19
C48 a_n76_1972# a_n76_736# 0.00947f
C49 a_18_1972# a_n33_639# 1.15e-19
C50 a_n76_4444# a_n33_3111# 1.15e-19
C51 a_n76_n4208# a_n33_n5541# 1.15e-19
C52 a_18_n5444# a_18_n6680# 0.00947f
C53 a_18_3208# w_n112_4344# 0.00199f
C54 w_n112_n5544# a_18_n4208# 0.00199f
C55 a_18_4444# a_n33_5583# 1.15e-19
C56 a_n33_6819# a_n33_8055# 0.0665f
C57 a_n33_n8013# a_n33_n9249# 0.0665f
C58 a_n33_n3069# a_18_n2972# 0.0417f
C59 a_n76_736# w_n112_n600# 0.00199f
C60 w_n112_n6780# a_n76_n7916# 0.00199f
C61 a_n33_n3069# w_n112_n1836# 4.13e-19
C62 w_n112_n8016# a_n33_n9249# 4.13e-19
C63 a_n33_n597# w_n112_n1836# 4.13e-19
C64 a_n76_6916# w_n112_8052# 0.00199f
C65 a_n76_n5444# a_n76_n4208# 0.00947f
C66 a_18_n5444# a_n33_n4305# 1.15e-19
C67 a_18_4444# a_n33_3111# 1.15e-19
C68 a_n33_n1833# a_n76_n1736# 0.0417f
C69 a_n33_n6777# a_18_n6680# 0.0417f
C70 a_18_736# a_18_n500# 0.00947f
C71 a_n33_n597# a_n76_n500# 0.0417f
C72 a_n76_n7916# a_n76_n9152# 0.00947f
C73 a_n33_n8013# a_18_n9152# 1.15e-19
C74 a_18_n7916# a_n33_n9249# 1.15e-19
C75 w_n112_n5544# a_n33_n5541# 0.106f
C76 a_18_n2972# w_n112_n1836# 0.00199f
C77 a_n76_n2972# w_n112_n3072# 0.0182f
C78 w_n112_n4308# a_n76_n2972# 0.00199f
C79 a_n76_6916# a_n33_8055# 1.15e-19
C80 a_n33_6819# a_n76_8152# 1.15e-19
C81 a_n33_n3069# a_n33_n4305# 0.0665f
C82 w_n112_n8016# a_18_n9152# 0.00199f
C83 w_n112_n9252# a_n76_n9152# 0.0182f
C84 a_18_n5444# a_18_n4208# 0.00947f
C85 a_n76_n500# w_n112_n1836# 0.00199f
C86 a_18_6916# w_n112_8052# 0.00199f
C87 a_n76_5680# w_n112_5580# 0.0182f
C88 a_n76_n1736# a_18_n1736# 0.747f
C89 w_n112_3108# a_n33_4347# 4.13e-19
C90 a_n33_3111# a_n76_3208# 0.0417f
C91 a_18_4444# a_18_3208# 0.00947f
C92 a_18_n7916# a_18_n9152# 0.00947f
C93 a_n33_639# a_n76_736# 0.0417f
C94 a_n76_5680# w_n112_6816# 0.00199f
C95 a_18_736# a_n33_1875# 1.15e-19
C96 a_n33_n6777# a_n33_n8013# 0.0665f
C97 w_n112_n5544# a_n76_n5444# 0.0182f
C98 a_n33_n597# a_18_n500# 0.0417f
C99 a_18_n2972# a_n33_n4305# 1.15e-19
C100 a_n33_n3069# a_18_n4208# 1.15e-19
C101 a_n76_n2972# a_n76_n4208# 0.00947f
C102 a_n76_6916# a_n76_8152# 0.00947f
C103 a_18_6916# a_n33_8055# 1.15e-19
C104 a_18_8152# w_n112_8052# 0.0182f
C105 w_n112_n8016# a_n33_n6777# 4.13e-19
C106 a_n76_n1736# w_n112_n600# 0.00199f
C107 a_18_n5444# a_n33_n5541# 0.0417f
C108 w_n112_636# a_18_736# 0.0182f
C109 w_n112_1872# a_18_736# 0.00199f
C110 a_18_n500# w_n112_n1836# 0.00199f
C111 a_n33_n9249# a_n76_n9152# 0.0417f
C112 a_18_5680# w_n112_5580# 0.0182f
C113 w_n112_3108# a_n76_4444# 0.00199f
C114 a_18_n6680# a_n33_n8013# 1.15e-19
C115 a_n33_n6777# a_18_n7916# 1.15e-19
C116 a_n76_n6680# a_n76_n7916# 0.00947f
C117 a_n76_3208# a_18_3208# 0.747f
C118 w_n112_n6780# a_18_n5444# 0.00199f
C119 a_n33_3111# a_18_3208# 0.0417f
C120 a_n33_n1833# a_n33_n3069# 0.0665f
C121 a_18_5680# w_n112_6816# 0.00199f
C122 a_18_8152# a_n33_8055# 0.0417f
C123 a_18_n2972# a_18_n4208# 0.00947f
C124 a_n76_n4208# w_n112_n3072# 0.00199f
C125 a_n33_6819# w_n112_5580# 4.13e-19
C126 a_n33_n597# a_n33_n1833# 0.0665f
C127 a_n76_n500# a_18_n500# 0.747f
C128 w_n112_n4308# a_n76_n4208# 0.0182f
C129 w_n112_n8016# a_18_n6680# 0.00199f
C130 a_n33_6819# w_n112_6816# 0.106f
C131 a_n76_n5444# a_18_n5444# 0.747f
C132 a_n76_n9152# a_18_n9152# 0.747f
C133 a_n33_n6777# a_n33_n5541# 0.0665f
C134 w_n112_636# a_n33_n597# 4.13e-19
C135 a_18_n6680# a_18_n7916# 0.00947f
C136 a_18_736# w_n112_n600# 0.00199f
C137 a_n33_n1833# a_18_n2972# 1.15e-19
C138 a_18_n1736# a_n33_n3069# 1.15e-19
C139 a_n76_n1736# a_n76_n2972# 0.00947f
C140 a_n33_n1833# w_n112_n1836# 0.106f
C141 a_n33_4347# w_n112_5580# 4.13e-19
C142 w_n112_3108# a_18_4444# 0.00199f
C143 w_n112_n6780# a_n33_n6777# 0.106f
C144 a_n76_3208# a_n33_1875# 1.15e-19
C145 w_n112_n5544# a_n76_n6680# 0.00199f
C146 a_n33_n597# a_18_n1736# 1.15e-19
C147 a_n76_5680# a_18_5680# 0.747f
C148 a_n33_3111# a_n33_1875# 0.0665f
C149 a_18_8152# a_n76_8152# 0.747f
C150 a_18_736# a_18_1972# 0.00947f
C151 a_n33_n4305# a_18_n4208# 0.0417f
C152 a_n76_n500# a_n33_n1833# 1.15e-19
C153 a_n76_6916# w_n112_5580# 0.00199f
C154 a_n76_5680# a_n33_6819# 1.15e-19
C155 w_n112_n8016# a_n33_n8013# 0.106f
C156 a_n76_6916# w_n112_6816# 0.0182f
C157 a_18_n6680# a_n33_n5541# 1.15e-19
C158 a_n76_n5444# a_n33_n6777# 1.15e-19
C159 a_18_n1736# a_18_n2972# 0.00947f
C160 a_18_n1736# w_n112_n1836# 0.0182f
C161 a_n76_n1736# w_n112_n3072# 0.00199f
C162 w_n112_636# a_n76_n500# 0.00199f
C163 a_n33_n597# w_n112_n600# 0.106f
C164 w_n112_1872# a_n76_3208# 0.00199f
C165 a_n33_n8013# a_18_n7916# 0.0417f
C166 w_n112_n6780# a_18_n6680# 0.0182f
C167 w_n112_1872# a_n33_3111# 4.13e-19
C168 w_n112_3108# a_n76_3208# 0.0182f
C169 a_n76_4444# w_n112_5580# 0.00199f
C170 w_n112_3108# a_n33_3111# 0.106f
C171 a_18_3208# a_n33_1875# 1.15e-19
C172 a_n76_3208# a_n76_1972# 0.00947f
C173 a_n76_5680# a_n33_4347# 1.15e-19
C174 a_n33_3111# a_n76_1972# 1.15e-19
C175 w_n112_n9252# a_n76_n7916# 0.00199f
C176 w_n112_n8016# a_18_n7916# 0.0182f
C177 a_18_736# a_n33_639# 0.0417f
C178 a_n33_n4305# a_n33_n5541# 0.0665f
C179 a_18_6916# w_n112_5580# 0.00199f
C180 a_18_n500# a_n33_n1833# 1.15e-19
C181 a_n76_5680# w_n112_4344# 0.00199f
C182 a_18_5680# a_n33_6819# 1.15e-19
C183 a_n76_5680# a_n76_6916# 0.00947f
C184 a_18_6916# w_n112_6816# 0.0182f
C185 w_n112_n5544# a_n76_n4208# 0.00199f
C186 a_n33_8055# w_n112_8052# 0.106f
C187 w_n112_636# a_18_n500# 0.00199f
C188 a_n33_n3069# a_n76_n2972# 0.0417f
C189 w_n112_1872# a_18_3208# 0.00199f
C190 a_n76_n500# w_n112_n600# 0.0182f
C191 w_n112_n6780# a_n33_n8013# 4.13e-19
C192 w_n112_n4308# a_18_n5444# 0.00199f
C193 w_n112_3108# a_18_3208# 0.0182f
C194 a_18_4444# w_n112_5580# 0.00199f
C195 a_18_n4208# a_n33_n5541# 1.15e-19
C196 a_n76_n5444# a_n33_n4305# 1.15e-19
C197 a_n76_5680# a_n76_4444# 0.00947f
C198 a_18_n500# a_18_n1736# 0.00947f
C199 a_18_5680# a_n33_4347# 1.15e-19
C200 a_18_8152# w_n112_6816# 0.00199f
C201 a_n33_3111# a_18_1972# 1.15e-19
C202 a_n33_n597# a_n33_639# 0.0665f
C203 a_18_736# a_n76_736# 0.747f
C204 a_n33_5583# w_n112_5580# 0.106f
C205 a_n33_n6777# a_n76_n6680# 0.0417f
C206 a_18_5680# w_n112_4344# 0.00199f
C207 a_n76_n7916# a_n33_n9249# 1.15e-19
C208 a_n33_n8013# a_n76_n9152# 1.15e-19
C209 a_n33_5583# w_n112_6816# 4.13e-19
C210 a_n76_n2972# a_18_n2972# 0.747f
C211 a_n33_n3069# w_n112_n3072# 0.106f
C212 a_n76_n2972# w_n112_n1836# 0.00199f
C213 w_n112_n6780# a_18_n7916# 0.00199f
C214 w_n112_n4308# a_n33_n3069# 4.13e-19
C215 w_n112_636# a_n33_1875# 4.13e-19
C216 a_n76_8152# w_n112_8052# 0.0182f
C217 a_n33_6819# a_n76_6916# 0.0417f
C218 w_n112_n9252# a_n33_n9249# 0.106f
C219 w_n112_n8016# a_n76_n9152# 0.00199f
C220 a_18_n500# w_n112_n600# 0.0182f
C221 w_n112_1872# a_n33_1875# 0.106f
C222 w_n112_3108# a_n33_1875# 4.13e-19
C223 a_n33_1875# a_n76_1972# 0.0417f
C224 a_18_3208# a_18_1972# 0.00947f
C225 a_n33_n1833# a_18_n1736# 0.0417f
C226 a_n76_n6680# a_18_n6680# 0.747f
C227 a_n33_n597# a_n76_736# 1.15e-19
C228 a_n76_n500# a_n33_639# 1.15e-19
C229 a_n33_8055# a_n76_8152# 0.0417f
C230 w_n112_n6780# a_n33_n5541# 4.13e-19
C231 a_18_n2972# w_n112_n3072# 0.0182f
C232 w_n112_n4308# a_18_n2972# 0.00199f
C233 a_n33_4347# w_n112_4344# 0.106f
C234 a_18_5680# a_18_6916# 0.00947f
C235 a_n76_5680# a_n33_5583# 0.0417f
C236 a_n33_n3069# a_n76_n4208# 1.15e-19
C237 a_n76_n2972# a_n33_n4305# 1.15e-19
C238 w_n112_n9252# a_18_n9152# 0.0182f
C239 w_n112_636# a_n76_1972# 0.00199f
C240 a_n33_6819# a_18_6916# 0.0417f
C241 a_n33_n1833# w_n112_n600# 4.13e-19
C242 w_n112_1872# a_n76_1972# 0.0182f
C243 a_n76_n5444# a_n33_n5541# 0.0417f
C244 w_n112_3108# a_n76_1972# 0.00199f
C245 a_n33_1875# a_18_1972# 0.0417f
C246 a_18_5680# a_18_4444# 0.00947f
C247 a_n33_4347# a_n76_4444# 0.0417f
C248 a_n76_n6680# a_n33_n8013# 1.15e-19
C249 a_n33_n6777# a_n76_n7916# 1.15e-19
C250 w_n112_n5544# a_18_n5444# 0.0182f
C251 w_n112_n6780# a_n76_n5444# 0.00199f
C252 a_18_n500# a_n33_639# 1.15e-19
C253 a_n76_n500# a_n76_736# 0.00947f
C254 a_18_8152# a_n33_6819# 1.15e-19
C255 a_n33_n4305# w_n112_n3072# 4.13e-19
C256 a_n76_4444# w_n112_4344# 0.0182f
C257 w_n112_n4308# a_n33_n4305# 0.106f
C258 a_18_5680# a_n33_5583# 0.0417f
C259 w_n112_n8016# a_n76_n6680# 0.00199f
C260 a_18_n1736# w_n112_n600# 0.00199f
C261 w_n112_636# a_18_1972# 0.00199f
C262 a_n33_6819# a_n33_5583# 0.0665f
C263 a_n76_6916# a_18_6916# 0.747f
C264 w_n112_1872# a_18_1972# 0.0182f
C265 a_n33_n9249# a_18_n9152# 0.0417f
C266 w_n112_3108# a_18_1972# 0.00199f
C267 a_n33_n1833# a_n76_n2972# 1.15e-19
C268 a_n76_n1736# a_n33_n3069# 1.15e-19
C269 a_n76_1972# a_18_1972# 0.747f
C270 a_n33_1875# a_n33_639# 0.0665f
C271 a_n33_4347# a_18_4444# 0.0417f
C272 a_18_n9152# VSUBS 0.426f
C273 a_n76_n9152# VSUBS 0.426f
C274 a_n33_n9249# VSUBS 0.192f
C275 a_18_n7916# VSUBS 0.415f
C276 a_n76_n7916# VSUBS 0.415f
C277 a_n33_n8013# VSUBS 0.156f
C278 a_18_n6680# VSUBS 0.415f
C279 a_n76_n6680# VSUBS 0.415f
C280 a_n33_n6777# VSUBS 0.156f
C281 a_18_n5444# VSUBS 0.415f
C282 a_n76_n5444# VSUBS 0.415f
C283 a_n33_n5541# VSUBS 0.156f
C284 a_18_n4208# VSUBS 0.415f
C285 a_n76_n4208# VSUBS 0.415f
C286 a_n33_n4305# VSUBS 0.156f
C287 a_18_n2972# VSUBS 0.415f
C288 a_n76_n2972# VSUBS 0.415f
C289 a_n33_n3069# VSUBS 0.156f
C290 a_18_n1736# VSUBS 0.415f
C291 a_n76_n1736# VSUBS 0.415f
C292 a_n33_n1833# VSUBS 0.156f
C293 a_18_n500# VSUBS 0.415f
C294 a_n76_n500# VSUBS 0.415f
C295 a_n33_n597# VSUBS 0.156f
C296 a_18_736# VSUBS 0.415f
C297 a_n76_736# VSUBS 0.415f
C298 a_n33_639# VSUBS 0.156f
C299 a_18_1972# VSUBS 0.415f
C300 a_n76_1972# VSUBS 0.415f
C301 a_n33_1875# VSUBS 0.156f
C302 a_18_3208# VSUBS 0.415f
C303 a_n76_3208# VSUBS 0.415f
C304 a_n33_3111# VSUBS 0.156f
C305 a_18_4444# VSUBS 0.415f
C306 a_n76_4444# VSUBS 0.415f
C307 a_n33_4347# VSUBS 0.156f
C308 a_18_5680# VSUBS 0.415f
C309 a_n76_5680# VSUBS 0.415f
C310 a_n33_5583# VSUBS 0.156f
C311 a_18_6916# VSUBS 0.415f
C312 a_n76_6916# VSUBS 0.415f
C313 a_n33_6819# VSUBS 0.156f
C314 a_18_8152# VSUBS 0.426f
C315 a_n76_8152# VSUBS 0.426f
C316 a_n33_8055# VSUBS 0.192f
C317 w_n112_n9252# VSUBS 0.806f
C318 w_n112_n8016# VSUBS 0.806f
C319 w_n112_n6780# VSUBS 0.806f
C320 w_n112_n5544# VSUBS 0.806f
C321 w_n112_n4308# VSUBS 0.806f
C322 w_n112_n3072# VSUBS 0.806f
C323 w_n112_n1836# VSUBS 0.806f
C324 w_n112_n600# VSUBS 0.806f
C325 w_n112_636# VSUBS 0.806f
C326 w_n112_1872# VSUBS 0.806f
C327 w_n112_3108# VSUBS 0.806f
C328 w_n112_4344# VSUBS 0.806f
C329 w_n112_5580# VSUBS 0.806f
C330 w_n112_6816# VSUBS 0.806f
C331 w_n112_8052# VSUBS 0.806f
.ends

.subckt sky130_fd_pr__nfet_01v8_MHE452 a_n158_n359# a_n100_957# a_100_n1295# a_n158_577#
+ a_n100_21# a_100_109# a_n100_n915# a_100_n827# a_n100_489# a_100_1045# a_n158_n1295#
+ a_n158_n827# a_100_577# a_n158_1045# a_n100_n447# a_n158_109# a_100_n359# a_n100_n1383#
+ VSUBS
X0 a_100_n827# a_n100_n915# a_n158_n827# VSUBS sky130_fd_pr__nfet_01v8 ad=0.363 pd=3.08 as=0.363 ps=3.08 w=1.25 l=1
**devattr s=14500,616 d=14500,616
X1 a_100_n359# a_n100_n447# a_n158_n359# VSUBS sky130_fd_pr__nfet_01v8 ad=0.363 pd=3.08 as=0.363 ps=3.08 w=1.25 l=1
**devattr s=14500,616 d=14500,616
X2 a_100_577# a_n100_489# a_n158_577# VSUBS sky130_fd_pr__nfet_01v8 ad=0.363 pd=3.08 as=0.363 ps=3.08 w=1.25 l=1
**devattr s=14500,616 d=14500,616
X3 a_100_1045# a_n100_957# a_n158_1045# VSUBS sky130_fd_pr__nfet_01v8 ad=0.363 pd=3.08 as=0.363 ps=3.08 w=1.25 l=1
**devattr s=14500,616 d=14500,616
X4 a_100_n1295# a_n100_n1383# a_n158_n1295# VSUBS sky130_fd_pr__nfet_01v8 ad=0.363 pd=3.08 as=0.363 ps=3.08 w=1.25 l=1
**devattr s=14500,616 d=14500,616
X5 a_100_109# a_n100_21# a_n158_109# VSUBS sky130_fd_pr__nfet_01v8 ad=0.363 pd=3.08 as=0.363 ps=3.08 w=1.25 l=1
**devattr s=14500,616 d=14500,616
C0 a_100_n359# a_n100_n447# 0.0322f
C1 a_n100_957# a_n158_1045# 0.0322f
C2 a_n158_n827# a_100_n827# 0.0693f
C3 a_n158_n359# a_n158_n827# 0.0113f
C4 a_n100_n1383# a_n100_n915# 0.205f
C5 a_n158_1045# a_100_1045# 0.0693f
C6 a_n158_n827# a_n100_n915# 0.0322f
C7 a_n100_957# a_n100_489# 0.205f
C8 a_100_n359# a_100_109# 0.0113f
C9 a_n100_n915# a_100_n827# 0.0322f
C10 a_n158_1045# a_n158_577# 0.0113f
C11 a_100_n1295# a_n158_n1295# 0.0693f
C12 a_100_1045# a_100_577# 0.0113f
C13 a_n158_n359# a_n100_n447# 0.0322f
C14 a_n158_n359# a_n158_109# 0.0113f
C15 a_n100_21# a_n100_489# 0.205f
C16 a_n100_489# a_n158_577# 0.0322f
C17 a_n100_n1383# a_100_n1295# 0.0322f
C18 a_n100_n447# a_n100_n915# 0.205f
C19 a_n158_577# a_100_577# 0.0693f
C20 a_100_577# a_100_109# 0.0113f
C21 a_100_n1295# a_100_n827# 0.0113f
C22 a_n100_957# a_100_1045# 0.0322f
C23 a_n100_n447# a_n100_21# 0.205f
C24 a_n100_n1383# a_n158_n1295# 0.0322f
C25 a_n158_109# a_n100_21# 0.0322f
C26 a_100_n359# a_100_n827# 0.0113f
C27 a_n158_109# a_n158_577# 0.0113f
C28 a_100_n359# a_n158_n359# 0.0693f
C29 a_n158_109# a_100_109# 0.0693f
C30 a_n158_n827# a_n158_n1295# 0.0113f
C31 a_n100_489# a_100_577# 0.0322f
C32 a_n100_21# a_100_109# 0.0322f
C33 a_100_n1295# VSUBS 0.14f
C34 a_n158_n1295# VSUBS 0.14f
C35 a_n100_n1383# VSUBS 0.553f
C36 a_100_n827# VSUBS 0.13f
C37 a_n158_n827# VSUBS 0.13f
C38 a_n100_n915# VSUBS 0.441f
C39 a_100_n359# VSUBS 0.13f
C40 a_n158_n359# VSUBS 0.13f
C41 a_n100_n447# VSUBS 0.441f
C42 a_100_109# VSUBS 0.13f
C43 a_n158_109# VSUBS 0.13f
C44 a_n100_21# VSUBS 0.441f
C45 a_100_577# VSUBS 0.13f
C46 a_n158_577# VSUBS 0.13f
C47 a_n100_489# VSUBS 0.441f
C48 a_100_1045# VSUBS 0.14f
C49 a_n158_1045# VSUBS 0.14f
C50 a_n100_957# VSUBS 0.553f
.ends

.subckt sky130_fd_pr__pfet_01v8_P2UXFR a_n300_n1215# w_n394_n1218# a_n358_n1118# a_n300_21#
+ a_300_118# w_n394_18# a_300_n1118# a_n358_118# VSUBS
X0 a_300_118# a_n300_21# a_n358_118# w_n394_18# sky130_fd_pr__pfet_01v8 ad=1.45 pd=10.6 as=1.45 ps=10.6 w=5 l=3
**devattr s=58000,2116 d=58000,2116
X1 a_300_n1118# a_n300_n1215# a_n358_n1118# w_n394_n1218# sky130_fd_pr__pfet_01v8 ad=1.45 pd=10.6 as=1.45 ps=10.6 w=5 l=3
**devattr s=58000,2116 d=58000,2116
C0 w_n394_18# a_300_118# 0.0187f
C1 a_n358_n1118# a_300_n1118# 0.107f
C2 a_n358_118# a_n300_21# 0.184f
C3 a_n358_n1118# a_n358_118# 0.0105f
C4 w_n394_n1218# a_n300_21# 0.00346f
C5 a_n358_n1118# w_n394_n1218# 0.0187f
C6 w_n394_18# a_300_n1118# 0.0023f
C7 a_n358_118# w_n394_18# 0.0187f
C8 w_n394_18# a_n300_21# 0.382f
C9 a_n358_n1118# w_n394_18# 0.0023f
C10 a_n300_n1215# a_300_n1118# 0.184f
C11 w_n394_n1218# a_n300_n1215# 0.382f
C12 a_n300_n1215# a_n300_21# 0.62f
C13 a_n358_n1118# a_n300_n1215# 0.184f
C14 w_n394_18# a_n300_n1215# 0.00346f
C15 a_300_n1118# a_300_118# 0.0105f
C16 a_n358_118# a_300_118# 0.107f
C17 w_n394_n1218# a_300_118# 0.0023f
C18 a_n300_21# a_300_118# 0.184f
C19 w_n394_n1218# a_300_n1118# 0.0187f
C20 a_n358_118# w_n394_n1218# 0.0023f
C21 a_300_n1118# VSUBS 0.536f
C22 a_n358_n1118# VSUBS 0.536f
C23 a_n300_n1215# VSUBS 1.08f
C24 a_300_118# VSUBS 0.536f
C25 a_n358_118# VSUBS 0.536f
C26 a_n300_21# VSUBS 1.08f
C27 w_n394_n1218# VSUBS 2.84f
C28 w_n394_18# VSUBS 2.84f
.ends

.subckt sky130_fd_pr__pfet_01v8_MGA63L a_18_n500# a_n33_n597# w_n112_n600# a_n76_n500#
+ VSUBS
X0 a_18_n500# a_n33_n597# a_n76_n500# w_n112_n600# sky130_fd_pr__pfet_01v8 ad=1.45 pd=10.6 as=1.45 ps=10.6 w=5 l=0.18
**devattr s=58000,2116 d=58000,2116
C0 w_n112_n600# a_n33_n597# 0.106f
C1 a_18_n500# a_n33_n597# 0.0417f
C2 w_n112_n600# a_18_n500# 0.0182f
C3 a_n76_n500# a_n33_n597# 0.0417f
C4 w_n112_n600# a_n76_n500# 0.0182f
C5 a_18_n500# a_n76_n500# 0.747f
C6 a_18_n500# VSUBS 0.437f
C7 a_n76_n500# VSUBS 0.437f
C8 a_n33_n597# VSUBS 0.228f
C9 w_n112_n600# VSUBS 0.806f
.ends

.subckt sky130_fd_pr__nfet_01v8_VT3ZQW a_n158_n125# a_n100_n213# a_100_n125# VSUBS
X0 a_100_n125# a_n100_n213# a_n158_n125# VSUBS sky130_fd_pr__nfet_01v8 ad=0.363 pd=3.08 as=0.363 ps=3.08 w=1.25 l=1
**devattr s=14500,616 d=14500,616
C0 a_n100_n213# a_n158_n125# 0.0322f
C1 a_100_n125# a_n158_n125# 0.0693f
C2 a_n100_n213# a_100_n125# 0.0322f
C3 a_100_n125# VSUBS 0.151f
C4 a_n158_n125# VSUBS 0.151f
C5 a_n100_n213# VSUBS 0.664f
.ends

.subckt sky130_fd_pr__pfet_01v8_RRUZAE a_n358_n2972# a_n300_n1833# a_n300_n3069# w_n394_n1836#
+ w_n394_1872# a_n358_n1736# a_300_736# a_300_1972# a_300_n2972# w_n394_636# w_n394_n3072#
+ a_n300_n597# a_300_n500# a_n300_639# a_n358_1972# a_n300_1875# w_n394_n600# a_300_n1736#
+ a_n358_n500# a_n358_736# VSUBS
X0 a_300_n500# a_n300_n597# a_n358_n500# w_n394_n600# sky130_fd_pr__pfet_01v8 ad=1.45 pd=10.6 as=1.45 ps=10.6 w=5 l=3
**devattr s=58000,2116 d=58000,2116
X1 a_300_736# a_n300_639# a_n358_736# w_n394_636# sky130_fd_pr__pfet_01v8 ad=1.45 pd=10.6 as=1.45 ps=10.6 w=5 l=3
**devattr s=58000,2116 d=58000,2116
X2 a_300_n2972# a_n300_n3069# a_n358_n2972# w_n394_n3072# sky130_fd_pr__pfet_01v8 ad=1.45 pd=10.6 as=1.45 ps=10.6 w=5 l=3
**devattr s=58000,2116 d=58000,2116
X3 a_300_1972# a_n300_1875# a_n358_1972# w_n394_1872# sky130_fd_pr__pfet_01v8 ad=1.45 pd=10.6 as=1.45 ps=10.6 w=5 l=3
**devattr s=58000,2116 d=58000,2116
X4 a_300_n1736# a_n300_n1833# a_n358_n1736# w_n394_n1836# sky130_fd_pr__pfet_01v8 ad=1.45 pd=10.6 as=1.45 ps=10.6 w=5 l=3
**devattr s=58000,2116 d=58000,2116
C0 a_n358_736# a_n358_1972# 0.0105f
C1 a_n300_639# a_n300_n597# 0.62f
C2 a_n300_639# a_n300_1875# 0.62f
C3 a_300_1972# w_n394_636# 0.0023f
C4 a_300_n500# w_n394_636# 0.0023f
C5 a_n358_n500# a_300_n500# 0.107f
C6 a_300_736# a_300_1972# 0.0105f
C7 a_n300_n1833# a_n300_n597# 0.62f
C8 a_n358_n1736# a_300_n1736# 0.107f
C9 w_n394_1872# a_300_736# 0.0023f
C10 a_n358_n2972# w_n394_n1836# 0.0023f
C11 a_300_736# a_300_n500# 0.0105f
C12 w_n394_n1836# a_n300_n1833# 0.382f
C13 a_300_n2972# w_n394_n3072# 0.0187f
C14 a_n300_1875# a_n358_1972# 0.184f
C15 a_n358_736# w_n394_636# 0.0187f
C16 a_n358_n500# a_n358_736# 0.0105f
C17 w_n394_1872# a_300_1972# 0.0187f
C18 a_300_736# a_n358_736# 0.107f
C19 a_n300_639# w_n394_n600# 0.00346f
C20 w_n394_n1836# a_n300_n3069# 0.00346f
C21 a_n358_n1736# w_n394_n1836# 0.0187f
C22 a_n300_n597# w_n394_636# 0.00346f
C23 a_n358_n500# a_n300_n597# 0.184f
C24 a_n300_1875# w_n394_636# 0.00346f
C25 w_n394_1872# a_n358_736# 0.0023f
C26 w_n394_n600# a_n300_n1833# 0.00346f
C27 a_n358_n500# w_n394_n1836# 0.0023f
C28 a_300_n500# a_300_n1736# 0.0105f
C29 a_n358_n2972# w_n394_n3072# 0.0187f
C30 a_n300_n1833# w_n394_n3072# 0.00346f
C31 a_n300_1875# a_300_1972# 0.184f
C32 a_n358_n1736# w_n394_n600# 0.0023f
C33 a_n300_n597# a_300_n500# 0.184f
C34 w_n394_1872# a_n300_1875# 0.382f
C35 a_n300_n3069# w_n394_n3072# 0.382f
C36 a_n358_n2972# a_300_n2972# 0.107f
C37 a_n358_n1736# w_n394_n3072# 0.0023f
C38 w_n394_n1836# a_300_n500# 0.0023f
C39 a_n358_n500# w_n394_n600# 0.0187f
C40 a_300_736# w_n394_n600# 0.0023f
C41 w_n394_n1836# a_300_n1736# 0.0187f
C42 a_300_n2972# a_n300_n3069# 0.184f
C43 w_n394_n600# a_300_n500# 0.0187f
C44 w_n394_n1836# a_n300_n597# 0.00346f
C45 a_n358_736# w_n394_n600# 0.0023f
C46 w_n394_n600# a_300_n1736# 0.0023f
C47 a_n358_n2972# a_n300_n3069# 0.184f
C48 a_n300_639# w_n394_636# 0.382f
C49 a_n358_n2972# a_n358_n1736# 0.0105f
C50 a_n300_n1833# a_n300_n3069# 0.62f
C51 a_300_n1736# w_n394_n3072# 0.0023f
C52 a_n358_n1736# a_n300_n1833# 0.184f
C53 a_n300_639# a_300_736# 0.184f
C54 w_n394_n600# a_n300_n597# 0.382f
C55 w_n394_636# a_n358_1972# 0.0023f
C56 a_300_n2972# a_300_n1736# 0.0105f
C57 a_n300_639# w_n394_1872# 0.00346f
C58 a_n358_n500# a_n358_n1736# 0.0105f
C59 a_n300_639# a_n358_736# 0.184f
C60 a_300_1972# a_n358_1972# 0.107f
C61 a_n358_n500# w_n394_636# 0.0023f
C62 w_n394_1872# a_n358_1972# 0.0187f
C63 a_300_n2972# w_n394_n1836# 0.0023f
C64 a_300_736# w_n394_636# 0.0187f
C65 a_n300_n1833# a_300_n1736# 0.184f
C66 a_300_n2972# VSUBS 0.536f
C67 a_n358_n2972# VSUBS 0.536f
C68 a_n300_n3069# VSUBS 1.08f
C69 a_300_n1736# VSUBS 0.524f
C70 a_n358_n1736# VSUBS 0.524f
C71 a_n300_n1833# VSUBS 0.739f
C72 a_300_n500# VSUBS 0.524f
C73 a_n358_n500# VSUBS 0.524f
C74 a_n300_n597# VSUBS 0.739f
C75 a_300_736# VSUBS 0.524f
C76 a_n358_736# VSUBS 0.524f
C77 a_n300_639# VSUBS 0.739f
C78 a_300_1972# VSUBS 0.536f
C79 a_n358_1972# VSUBS 0.536f
C80 a_n300_1875# VSUBS 1.08f
C81 w_n394_n3072# VSUBS 2.84f
C82 w_n394_n1836# VSUBS 2.84f
C83 w_n394_n600# VSUBS 2.84f
C84 w_n394_636# VSUBS 2.84f
C85 w_n394_1872# VSUBS 2.84f
.ends

.subckt sky130_fd_pr__pfet_01v8_8DHNHY w_n112_636# a_n33_n5541# a_n33_n8013# a_n76_736#
+ a_n33_9291# w_n112_1872# a_18_9388# w_n112_4344# a_18_n500# a_18_n2972# a_18_n5444#
+ a_n76_n1736# a_n33_3111# a_n76_n4208# a_18_3208# w_n112_9288# a_n76_n7916# a_n33_n1833#
+ a_18_6916# a_n76_5680# w_n112_n3072# a_n76_n10388# a_n33_n4305# a_n33_5583# a_n76_8152#
+ w_n112_n6780# a_n33_8055# a_n33_n3069# a_n33_639# w_n112_n9252# w_n112_3108# a_18_n10388#
+ w_n112_6816# a_n33_n6777# a_n33_n597# w_n112_n10488# a_n33_n9249# a_18_n1736# a_18_n4208#
+ a_18_n7916# a_n76_1972# a_n33_1875# w_n112_n600# a_n76_n6680# a_18_736# a_n76_4444#
+ a_18_5680# a_n33_4347# w_n112_n5544# a_n76_n9152# a_18_8152# w_n112_n8016# a_n76_n500#
+ a_n76_9388# w_n112_5580# w_n112_8052# a_18_n6680# a_n76_n2972# a_18_1972# a_n76_3208#
+ a_n76_n5444# a_18_4444# a_n76_6916# w_n112_n1836# a_n33_n10485# a_18_n9152# a_n33_6819#
+ w_n112_n4308# VSUBS
X0 a_18_3208# a_n33_3111# a_n76_3208# w_n112_3108# sky130_fd_pr__pfet_01v8 ad=1.45 pd=10.6 as=1.45 ps=10.6 w=5 l=0.18
**devattr s=58000,2116 d=58000,2116
X1 a_18_n6680# a_n33_n6777# a_n76_n6680# w_n112_n6780# sky130_fd_pr__pfet_01v8 ad=1.45 pd=10.6 as=1.45 ps=10.6 w=5 l=0.18
**devattr s=58000,2116 d=58000,2116
X2 a_18_9388# a_n33_9291# a_n76_9388# w_n112_9288# sky130_fd_pr__pfet_01v8 ad=1.45 pd=10.6 as=1.45 ps=10.6 w=5 l=0.18
**devattr s=58000,2116 d=58000,2116
X3 a_18_n500# a_n33_n597# a_n76_n500# w_n112_n600# sky130_fd_pr__pfet_01v8 ad=1.45 pd=10.6 as=1.45 ps=10.6 w=5 l=0.18
**devattr s=58000,2116 d=58000,2116
X4 a_18_n9152# a_n33_n9249# a_n76_n9152# w_n112_n9252# sky130_fd_pr__pfet_01v8 ad=1.45 pd=10.6 as=1.45 ps=10.6 w=5 l=0.18
**devattr s=58000,2116 d=58000,2116
X5 a_18_736# a_n33_639# a_n76_736# w_n112_636# sky130_fd_pr__pfet_01v8 ad=1.45 pd=10.6 as=1.45 ps=10.6 w=5 l=0.18
**devattr s=58000,2116 d=58000,2116
X6 a_18_n2972# a_n33_n3069# a_n76_n2972# w_n112_n3072# sky130_fd_pr__pfet_01v8 ad=1.45 pd=10.6 as=1.45 ps=10.6 w=5 l=0.18
**devattr s=58000,2116 d=58000,2116
X7 a_18_n7916# a_n33_n8013# a_n76_n7916# w_n112_n8016# sky130_fd_pr__pfet_01v8 ad=1.45 pd=10.6 as=1.45 ps=10.6 w=5 l=0.18
**devattr s=58000,2116 d=58000,2116
X8 a_18_5680# a_n33_5583# a_n76_5680# w_n112_5580# sky130_fd_pr__pfet_01v8 ad=1.45 pd=10.6 as=1.45 ps=10.6 w=5 l=0.18
**devattr s=58000,2116 d=58000,2116
X9 a_18_n5444# a_n33_n5541# a_n76_n5444# w_n112_n5544# sky130_fd_pr__pfet_01v8 ad=1.45 pd=10.6 as=1.45 ps=10.6 w=5 l=0.18
**devattr s=58000,2116 d=58000,2116
X10 a_18_8152# a_n33_8055# a_n76_8152# w_n112_8052# sky130_fd_pr__pfet_01v8 ad=1.45 pd=10.6 as=1.45 ps=10.6 w=5 l=0.18
**devattr s=58000,2116 d=58000,2116
X11 a_18_n1736# a_n33_n1833# a_n76_n1736# w_n112_n1836# sky130_fd_pr__pfet_01v8 ad=1.45 pd=10.6 as=1.45 ps=10.6 w=5 l=0.18
**devattr s=58000,2116 d=58000,2116
X12 a_18_6916# a_n33_6819# a_n76_6916# w_n112_6816# sky130_fd_pr__pfet_01v8 ad=1.45 pd=10.6 as=1.45 ps=10.6 w=5 l=0.18
**devattr s=58000,2116 d=58000,2116
X13 a_18_1972# a_n33_1875# a_n76_1972# w_n112_1872# sky130_fd_pr__pfet_01v8 ad=1.45 pd=10.6 as=1.45 ps=10.6 w=5 l=0.18
**devattr s=58000,2116 d=58000,2116
X14 a_18_n4208# a_n33_n4305# a_n76_n4208# w_n112_n4308# sky130_fd_pr__pfet_01v8 ad=1.45 pd=10.6 as=1.45 ps=10.6 w=5 l=0.18
**devattr s=58000,2116 d=58000,2116
X15 a_18_4444# a_n33_4347# a_n76_4444# w_n112_4344# sky130_fd_pr__pfet_01v8 ad=1.45 pd=10.6 as=1.45 ps=10.6 w=5 l=0.18
**devattr s=58000,2116 d=58000,2116
X16 a_18_n10388# a_n33_n10485# a_n76_n10388# w_n112_n10488# sky130_fd_pr__pfet_01v8 ad=1.45 pd=10.6 as=1.45 ps=10.6 w=5 l=0.18
**devattr s=58000,2116 d=58000,2116
C0 a_n33_4347# a_n33_3111# 0.0665f
C1 w_n112_4344# a_n33_5583# 4.13e-19
C2 a_n33_n8013# w_n112_n9252# 4.13e-19
C3 a_n76_n6680# a_n76_n7916# 0.00947f
C4 a_18_n6680# a_n33_n8013# 1.15e-19
C5 w_n112_n8016# a_n76_n9152# 0.00199f
C6 a_n33_9291# a_n76_8152# 1.15e-19
C7 a_18_n500# w_n112_n600# 0.0182f
C8 a_n76_n500# a_n33_n1833# 1.15e-19
C9 a_18_n9152# w_n112_n9252# 0.0182f
C10 a_n76_n1736# a_18_n1736# 0.747f
C11 a_n33_4347# w_n112_5580# 4.13e-19
C12 a_n76_5680# w_n112_5580# 0.0182f
C13 a_n33_9291# a_n76_9388# 0.0417f
C14 a_n33_n3069# a_18_n2972# 0.0417f